%chk=Template-Sp.chk
%mem=300GB
%nprocshared=68
#p opt=(calcfc,ts,noeigen,maxstep=5) freq b3lyp def2svp em=gd3bj

Title Card Required

0 2
 Fe                -2.97099600    0.65815000    0.36070000
 C                  3.22977100   -1.88799100   -0.70369800
 Pd                 0.46744900   -1.39847300   -0.24660700
 C                 -2.24327200   -2.26066700   -0.81372000
 H                 -5.75927700    1.11556000    0.11120200
 H                 -4.37441600    0.32085000   -2.07701300
 H                 -2.00511100    1.64906400   -2.08954400
 C                  1.47153000    1.25237800   -0.26013900
 O                  4.28617000   -2.42785200   -0.95751200
 C                 -2.35219500   -1.26850500    0.29821500
 O                  0.24276500    1.58396700   -0.34565600
 C                 -1.56373400    0.25440200    1.83880500
 C                 -2.85488900   -0.17265000    2.26111900
 C                 -3.33183400   -1.14105400    1.32458100
 H                 -0.95739700    1.01786000    2.32346900
 H                 -3.39739700    0.19129600    3.13235300
 H                 -4.28694000   -1.66284200    1.36874600
 H                 -0.47971200    0.50873800   -0.08085500
 C                 -1.21998700   -0.41066100    0.60896200
 C                  3.21136100   -0.48290000   -0.05215500
 O                  2.05684500   -2.44880400   -0.90605400
 C                 -2.80941400    1.77010800   -1.36672600
 C                 -4.05063900    1.06502500   -1.35096000
 C                 -4.78228500    1.48444000   -0.19619500
 C                 -3.99318500    2.45212100    0.49733300
 C                 -2.77240400    2.62547300   -0.22238000
 H                 -1.93746200    3.26038300    0.06334300
 N                  1.84156900    0.01302400   -0.02210700
 H                  2.24979996    1.97601074   -0.38484477
 H                  3.65947449   -0.54422315    0.91755309
 H                  3.83488000    0.17607600   -0.67606000
 H                 -1.25048588   -2.95124246   -0.91571662
 H                 -3.04055748   -2.36231139   -1.52005157
 H                 -4.26181700    2.94528500    1.42988100

