%chk=cyc_rp_35.chk
%mem=300GB
%nprocshared=68
#p opt=(readfc,ts,noeigen,nofreeze,maxcyc=300) freq b3lyp guess=tcheck chkbas em=gd3bj  

Freeze index  [38, 37]  [38, 1]  [30, 11]  [30, 1]  [30, 32]  [30, 31] // Local index  30  38  34  11  (34,)  [37, 38]  [1, 38]

0 1
C            -4.58617811    2.41564453    1.09249357
C            -6.03502970    3.10888050   -0.90167287
C            -5.88553051    2.71991369    0.53471872
C            -4.84461741    1.82232436    2.38660672
C            -6.24671211    1.83742368    2.63769761
C            -6.89740949    2.37961966    1.48623812
H            -4.07188114    1.48548118    3.07451901
H            -6.74112312    1.47781706    3.53845986
H            -7.97283892    2.47241118    1.34214289
H            -7.07528510    2.99629841   -1.25399082
N            -5.10976965    2.29926929   -1.75652967
H            -5.74540840    4.16133368   -1.04326514
C            -5.42003093   -1.31611514    0.89434719
C            -6.82720831   -1.06866402    0.85373886
C            -7.10069794   -0.26638482   -0.29388190
C            -5.85681725    0.01449802   -0.95320326
C            -4.82510918   -0.67179150   -0.22574592
H            -4.89221356   -1.89513729    1.64952320
H            -7.56195165   -1.42412875    1.57385915
H            -8.07703743    0.11134927   -0.59471248
H            -3.76559568   -0.66004108   -0.47186082
Fe           -5.81422262    0.73883293    0.93039524
C            -5.65756039    0.94672625   -2.11192059
H            -6.61360580    1.09471513   -2.64587887
H            -4.93828446    0.51395688   -2.82036143
C            -4.79448745    3.01722699   -3.01003441
H            -4.03841097    2.44878095   -3.56438098
H            -5.70423082    3.14487187   -3.62437832
H            -4.37760990    4.00318546   -2.76979944
Pd           -3.31236208    2.06008167   -0.62532489
O            -2.24629756    1.52813638   -2.24823495
N            -1.53699341    1.93096046    0.24553286
C            -1.01619169    1.12066623   -2.01222992
C            -0.49284546    1.32075437   -0.56842875
C            -1.31117224    2.68915446    1.29958665
O            -0.30850563    0.60745811   -2.85234891
O            -2.24197001    3.32711320    1.88474880
H            -3.38766332    2.97664095    1.26996957
H             0.36522653    2.01099539   -0.64324696
O             0.03442715    2.75205803    1.74881783
C             0.12516756    3.58659600    2.87066179
C             1.56042472    3.61465897    3.29845441
C             1.80916177    4.45838243    4.47534919
C             1.17965986    4.49724987    5.73986637
C             1.64563229    5.41114888    6.64355426
C             2.69695269    6.28769759    6.36907360
C             3.28602655    6.22146817    5.12748156
C             2.84032698    5.30194596    4.17455467
C             3.27999644    5.02665421    2.80706029
C             4.29584962    5.61511437    2.03728180
C             4.54760493    5.20024917    0.75220801
C             3.78084351    4.18725735    0.22307402
C             2.78699091    3.60996397    0.97311149
C             2.51021259    4.01826792    2.29262997
H            -0.45158887    3.13940899    3.72745590
H            -0.29904850    4.55779602    2.62818297
H             1.78623111    2.55262046    3.62876525
H             0.37465951    3.80871907    5.91619389
H             1.18089391    5.46891429    7.63385233
H             3.03303088    6.98850218    7.10210610
H             4.09820737    6.86987797    4.85930653
H             4.88036130    6.41239352    2.48954568
H             5.31677314    5.62201275    0.12289086
H             3.94409243    3.82928017   -0.78386809
H             2.15191176    2.79874196    0.58912797
C             0.00000000    0.00000000    0.00000000
C             1.48759672    0.00000000    0.00000000
C             2.15557986   -0.47729940   -1.10884694
C             3.54168771   -0.50193664   -1.16616252
C             4.30343159   -0.04844102   -0.11271582
C             3.61994723    0.42763760    0.99329083
C             2.24279853    0.45465512    1.05615862
H            -0.39496422   -0.08141746    1.03092610
H            -0.42641617   -0.85257893   -0.56192467
H             1.57307352   -0.84273049   -1.95778595
H             4.04407998   -0.88139474   -2.04758932
H             5.38986548   -0.05164857   -0.12034672
H             4.20185842    0.78935086    1.83342534
H             1.71470925    0.83609285    1.94254718



