%chk=cyc_rp_5.chk
%mem=300GB
%nprocshared=68
#p opt=(readfc,ts,noeigen,nofreeze,maxcyc=300) freq b3lyp guess=tcheck chkbas em=gd3bj  

Freeze index  [38, 37]  [38, 1]  [30, 11]  [30, 1]  [30, 32]  [30, 31] // Local index  30  38  34  11  (34,)  [37, 38]  [1, 38]

0 1
C            -4.62538229    1.90073003    1.74784934
C            -6.10606856    3.10066096    0.03783695
C            -5.93570016    2.32205532    1.30338591
C            -4.85987047    0.95766630    2.81986978
C            -6.25967678    0.86913925    3.06855850
C            -6.93174482    1.70216450    2.12112810
H            -4.07419407    0.45623128    3.38118441
H            -6.73844879    0.25681059    3.83076659
H            -8.01012147    1.80800110    2.01230288
H            -7.14687340    3.06980977   -0.32918463
N            -5.17187899    2.58912301   -1.01476309
H            -5.83963570    4.15607198    0.20133019
C            -5.38333119   -1.63766435    0.49650796
C            -6.79565128   -1.42055000    0.53184565
C            -7.09598493   -0.33090895   -0.33878134
C            -5.86414582    0.15401513   -0.89398982
C            -4.81194933   -0.68775658   -0.39505420
H            -4.83688749   -2.39584401    1.05391794
H            -7.51639822   -1.98283115    1.12272308
H            -8.08260344    0.09486109   -0.51688571
H            -3.75515215   -0.58260065   -0.63041426
Fe           -5.81975337    0.31247263    1.11780648
C            -5.69463473    1.38194869   -1.73946784
H            -6.65827787    1.65442519   -2.20655149
H            -4.97289646    1.18520272   -2.54377746
C            -4.88278677    3.64134333   -2.01247140
H            -4.12005681    3.27150320   -2.70784475
H            -5.80043875    3.91826298   -2.56253550
H            -4.48433731    4.52709048   -1.50229041
Pd           -3.35986320    2.07797961   -0.00341714
O            -2.29752851    2.05450183   -1.71345610
N            -1.57448295    1.74598144    0.78979383
C            -1.05717940    1.62438551   -1.60663894
C            -0.52521292    1.41655713   -0.16708468
C            -1.35503240    2.17732407    2.01562884
O            -0.34652493    1.38780868   -2.56005607
O            -2.29360999    2.60108453    2.76081884
H            -3.43723422    2.41466205    2.07468190
H             0.31764604    2.11857796   -0.04434845
O            -0.00707049    2.13982519    2.46058958
C            -0.11068090    4.41518174    3.23437016
C             0.20472400    2.96807993    3.55016857
C            -0.56678088    2.51658974    4.77198356
C             1.68077915    2.89077855    3.88356946
H             0.76149634    4.80426484    2.64027759
H            -0.23392233    4.98205448    4.17772178
H            -1.01889056    4.44887632    2.58739407
H            -0.82116312    3.44420385    5.35124571
H             0.07364228    1.91027095    5.44400581
H            -1.52587859    2.03830664    4.51888050
H             1.95689387    3.56291677    4.72940573
H             2.23205915    3.12026392    2.95303169
H             1.89223014    1.82728455    4.12111196
C             0.00000000    0.00000000    0.00000000
C             1.48692668    0.00000000    0.00000000
C             2.18430041    0.13961498    1.18252860
C             3.56888604    0.13962436    1.18255521
C             4.32122700    0.00415433    0.03504672
O             5.70613596    0.01195472    0.10092441
C             6.52114850    1.12776956    0.00845187
C             7.96936524    0.63124029    0.13692147
C             6.41054306    1.68488403   -1.40576953
C             6.24626206    2.19476180    1.02217309
C             3.61559248   -0.13468472   -1.14091240
C             2.22070482   -0.13666857   -1.15763333
H            -0.35594728   -0.68570268   -0.81964573
H            -0.33943988   -0.47861346    0.94020304
H             1.60700336    0.24930608    2.11168956
H             4.10862852    0.25155145    2.13059545
H             8.04233389   -0.23371035   -0.55650057
H             8.18220830    0.32881461    1.17911707
H             8.67677897    1.40726240   -0.20430176
H             6.30479950    0.83021389   -2.10616797
H             5.57924278    2.38942668   -1.41869906
H             7.33483058    2.27091123   -1.64074292
H             5.17411578    2.21956535    1.25885549
H             6.89916539    2.13435461    1.91768592
H             6.47115481    3.18526250    0.53247772
H             4.15910564   -0.24429563   -2.06938978
H             1.66926732   -0.24560906   -2.08038795



