%chk=cyc_sp_4.chk
%mem=300GB
%nprocshared=96
#p opt=(calcfc,ts,noeigen,maxstep=5) freq b3lyp def2svp em=gd3bj  

Freeze index  [38, 37]  [38, 1]  [30, 11]  [30, 1]  [30, 32]  [30, 31] // Local index  30  38  34  11  (34,)  [37, 38]  [1, 38]

0 1
C            -1.05489909    6.31121583    0.01935764
C             1.34454000    6.38073650    1.06785364
C             0.17583828    6.97817780    0.34201336
C            -1.82537093    7.17197896   -0.81147692
C            -1.09974728    8.39164401   -0.98223682
C             0.12388391    8.28198982   -0.25692007
H            -2.79723224    6.93869419   -1.24173742
H            -1.42006921    9.25162620   -1.56744300
H             0.90778725    9.03629451   -0.20294083
H             2.01711973    7.18179914    1.42415787
N             2.16515949    5.40867458    0.26955914
H             0.99278664    5.81817455    1.94312112
C             0.05547182    5.60829729   -3.33422915
C             0.47864593    6.92152238   -3.68987540
C             1.61870665    7.24927000   -2.89428361
C             1.90859172    6.12134552   -2.06313841
C             0.96327464    5.06503521   -2.34661669
H            -0.77546928    5.05970196   -3.77142945
H             0.00375475    7.57174417   -4.42267397
H             2.14412511    8.20313141   -2.88744022
Fe            0.04944150    6.80538644   -1.66383521
H            -1.32355348    5.30307904    0.32738426
C             2.85062226    6.02960068   -0.90675262
H             3.26244112    7.01618846   -0.63085456
H             3.69694470    5.37098937   -1.15456687
C             3.15386523    4.78542146    1.17553663
H             3.74919746    4.05234795    0.61706839
H             3.82570500    5.55240800    1.60198453
H             2.62054428    4.26151963    1.97714916
Pd            0.90569914    3.87069914   -0.51894986
O             0.66007095    3.07475942    1.30455540
N            -0.12726741    2.25944773   -1.06648884
C            -0.16257990    2.04831434    1.37812558
C            -0.57653832    1.40605697    0.03173897
C            -0.20176014    1.96514757   -2.34924524
O            -0.54955750    1.57956519    2.42640579
O             0.36825311    2.67417777   -3.23602740
H            -1.67886470    1.33858391    0.03495417
H             0.85984196    3.75983650   -2.61261461
O            -0.97006751    0.82381526   -2.70060006
C            -3.03518122    1.96556088   -2.23322308
C            -2.20709109    1.16850009   -3.21926263
C            -2.09084802    1.91425505   -4.53159897
C            -2.94891601   -0.12482480   -3.48917006
H            -3.43969398    1.22366499   -1.49093068
H            -3.85642043    2.47986810   -2.76942083
H            -2.36239016    2.67206463   -1.69213507
H            -2.96269289    2.62031694   -4.57732347
H            -2.21759627    1.22607882   -5.39166595
H            -1.18530682    2.53821021   -4.58956255
H            -3.98054286    0.05397708   -3.87287658
H            -2.93358639   -0.70552832   -2.54842250
H            -2.33397998   -0.69129047   -4.21932639
C             0.00000000    0.00000000    0.00000000
C             1.48768634   -0.00000000   -0.00000000
C             2.17755083   -0.02695746    1.19396599
C             3.55804616   -0.02847626    1.26162900
C             4.30442880   -0.00226824    0.10108129
C             5.78385503   -0.00300667    0.13481092
F             6.31657492   -1.27438042    0.10317725
F             6.22182733    0.59606729    1.29516481
F             6.26043904    0.66038412   -0.99167859
C             3.63035737    0.02485764   -1.10046774
C             2.23865896    0.02609019   -1.15529671
H            -0.31781597   -0.53005914   -0.92617545
H            -0.41547777   -0.55344416    0.87325464
H             1.61935537   -0.04790059    2.12153008
H             4.10922951   -0.04943569    2.18989324
H             4.20583572    0.04544756   -2.01275898
H             1.70751553    0.04730066   -2.09451089



