%chk=cyc_sp_35.chk
%mem=300GB
%nprocshared=96
#p opt=(calcfc,ts,noeigen,maxstep=5) freq b3lyp def2svp em=gd3bj  

Freeze index  [38, 37]  [38, 1]  [30, 11]  [30, 1]  [30, 32]  [30, 31] // Local index  30  38  34  11  (34,)  [37, 38]  [1, 38]

0 1
C            -0.68207387    4.79963682   -4.17647743
C             1.71869841    5.43441479   -3.34291993
C             0.58617348    5.45755750   -4.32601798
C            -1.40172250    4.93336992   -5.39674343
C            -0.60588117    5.70403681   -6.30006768
C             0.61014036    6.04437407   -5.63613535
H            -2.38619590    4.51854801   -5.60364289
H            -0.87588941    5.97870995   -7.31804819
H             1.43710537    6.61102107   -6.06210703
H             2.43767483    6.24038160   -3.57640464
N             2.47969972    4.14150635   -3.27312305
H             1.33565571    5.60450131   -2.32770838
C             0.38059083    2.01225680   -6.19509306
C             0.87973996    2.74500015   -7.31046370
C             2.03816515    3.46387329   -6.88452657
C             2.26234894    3.15138807   -5.50642077
C             1.25620827    2.21403394   -5.06055788
H            -0.48174658    1.34972270   -6.19450762
H             0.44291458    2.77189621   -8.30734078
H             2.61874698    4.16097914   -7.48695859
Fe            0.44716262    4.01198133   -5.72609769
H            -1.00910733    4.25763832   -3.29177710
C             3.19890286    3.80188156   -4.54059790
H             3.66837589    4.70594215   -4.96645102
H             4.00471480    3.10586816   -4.26190367
C             3.43127105    4.22579668   -2.14431971
H             3.98173803    3.28052485   -2.05980846
H             4.14759322    5.05241339   -2.30265541
H             2.86914531    4.38455239   -1.21679939
Pd            1.13096268    2.52389502   -2.90220276
O             0.84140430    3.13866593   -1.01615500
N             0.00434948    0.99978894   -2.29327367
C            -0.04006226    2.45344010   -0.31668968
C            -0.49284546    1.10276024   -0.92272596
C            -0.08902809   -0.06296618   -3.06751267
O            -0.45252406    2.80954026    0.76565071
O             0.52049332   -0.14048968   -4.17948376
H            -1.59723401    1.10393138   -0.91750595
H             1.07587607    1.06332640   -4.40605133
O            -0.92356293   -1.11687372   -2.61009578
C            -1.28421983   -1.94128392   -3.68410496
C            -2.16006532   -3.02995662   -3.14423938
C            -2.61938267   -3.97969135   -4.16690763
C            -1.90589360   -4.70717545   -5.14593603
C            -2.62869135   -5.52627854   -5.96790647
C            -4.01466084   -5.66719152   -5.87755008
C            -4.67617040   -4.94341666   -4.91239882
C            -3.97544031   -4.09460460   -4.05173396
C            -4.42253552   -3.22911475   -2.96078402
C            -5.70838863   -2.99293915   -2.44929278
C            -5.91128683   -2.12687090   -1.40255147
C            -4.82328103   -1.48590371   -0.85530712
C            -3.56495985   -1.71469411   -1.35313736
C            -3.33202249   -2.59800554   -2.42549646
H            -0.36984125   -2.44828915   -4.10072739
H            -1.73726952   -1.33389613   -4.46373289
H            -1.48838387   -3.62652828   -2.45072789
H            -0.84105916   -4.57430159   -5.18666497
H            -2.10794531   -6.10522701   -6.73839933
H            -4.54458555   -6.31792457   -6.53871762
H            -5.74094409   -5.01085776   -4.79540967
H            -6.54296661   -3.51764160   -2.90757722
H            -6.87996427   -1.91376005   -0.97621180
H            -4.93648654   -0.79616951   -0.03057617
H            -2.66954934   -1.22385260   -0.94550419
C             0.00000000    0.00000000    0.00000000
C             1.48759672    0.00000000    0.00000000
C             2.15557986   -0.77474866   -0.92580817
C             3.54168771   -0.81476229   -0.97367234
C             4.30343159   -0.07868038   -0.09413175
C             3.61994723    0.69408552    0.82930446
C             2.24279853    0.73796921    0.88180709
H            -0.39496422    0.21710781    1.01108933
H            -0.42641617   -0.97775826   -0.29434495
H             1.57307352   -1.36790811   -1.63460941
H             4.04407998   -1.43066184   -1.70958633
H             5.38986548   -0.08393815   -0.10052510
H             4.20185842    1.28116231    1.53073394
H             1.71470925    1.35718593    1.62190849



