%chk=cyc_rp_12.chk
%mem=300GB
%nprocshared=68
#p opt=(readfc,ts,noeigen,nofreeze,maxcyc=300) freq b3lyp guess=tcheck chkbas em=gd3bj  

Freeze index  [38, 37]  [38, 1]  [30, 11]  [30, 1]  [30, 32]  [30, 31] // Local index  30  38  34  11  (34,)  [37, 38]  [1, 38]

0 1
C            -4.50290587   -0.42774975   -2.75731430
C            -4.30374325   -0.42449894   -5.31010338
C            -5.02476909   -0.79856483   -4.05429179
C            -5.28088207   -1.17578607   -1.79358382
C            -6.28934452   -1.91415196   -2.47692862
C            -6.12531004   -1.69492460   -3.87987657
H            -5.14568613   -1.11781797   -0.71554841
H            -7.04028775   -2.55323050   -2.01563361
H            -6.70474947   -2.16381116   -4.67381349
H            -4.63217129   -1.03193778   -6.17154661
N            -2.82475484   -0.55834406   -5.11767978
H            -4.48930113    0.63241637   -5.55527121
C            -3.25415758   -4.01557877   -2.27910179
C            -4.16731162   -4.53453400   -3.24857102
C            -3.89437915   -3.89828445   -4.49604994
C            -2.82951139   -2.95630805   -4.29712143
C            -2.41710773   -3.06374475   -2.92489172
H            -3.20553899   -4.29656840   -1.22894748
H            -4.93960461   -5.27993947   -3.06772134
H            -4.43123757   -4.06024478   -5.42984288
H            -1.62667649   -2.48134268   -2.45659834
Fe           -4.39794196   -2.47799067   -3.11998854
C            -2.32478865   -1.96259191   -5.30169652
H            -2.59200513   -2.28946418   -6.32285692
H            -1.22992058   -1.89589904   -5.24386029
C            -2.09443902    0.32175447   -6.05481860
H            -1.02412328    0.27931263   -5.82092609
H            -2.27074500    0.00849617   -7.09986674
H            -2.43567546    1.35613127   -5.92360522
Pd           -2.42585638    0.07858643   -3.11700765
O            -0.46049611    0.31888461   -3.48163795
N            -1.91030472    0.81956025   -1.35287802
C             0.28370819    0.59316310   -2.43006430
C            -0.47460720    0.91357079   -1.11827386
C            -2.82033040    1.49216362   -0.67734531
O             1.49596362    0.59662001   -2.45073804
O            -4.04514560    1.50009743   -1.01730670
H            -4.15497014    0.65783497   -2.06226896
H            -0.21251535    1.95304548   -0.85538818
O            -2.35544729    2.20818405    0.45737754
C            -3.48640145    4.21364776   -0.23959944
C            -3.24592751    3.19252528    0.85255153
C            -4.56120298    2.61657994    1.33237696
C            -2.60994198    3.92121278    2.01891657
H            -2.58578408    4.88736758   -0.24343766
H            -4.40903433    4.78425304   -0.01688074
H            -3.53176049    3.68292671   -1.21982181
H            -5.35345580    3.36978587    1.07598041
H            -4.57688264    2.53015588    2.43766571
H            -4.83733442    1.68807833    0.80862082
H            -3.24070694    4.76622793    2.38159146
H            -1.60629767    4.24442092    1.68618800
H            -2.44956775    3.16143350    2.81212082
C             0.00000000    0.00000000    0.00000000
C             1.48849574    0.00000000   -0.00000000
C             1.99599054    1.39808152    0.08737487
C             1.40223295    2.23661663    1.14951848
C            -0.01416754    1.98325752    1.48829224
C            -0.49016180    0.58889060    1.29180354
H            -0.42349270   -1.00728174   -0.11448352
H             1.95901657   -0.62718188    0.76629984
H             1.81804316   -0.40618735   -1.00160473
H             3.10993728    1.32290017    0.26197131
H             1.90123865    1.85494561   -0.93231669
H             2.05205169    2.18909671    2.06716715
H             1.48684144    3.31485604    0.82124458
H            -0.15375858    2.23058315    2.58195400
H            -0.69246765    2.70551895    0.96084762
H            -0.28632785   -0.04767491    2.17491316
H            -1.61609612    0.63065956    1.21024866



