%chk=cyc_rp_29.chk
%mem=300GB
%nprocshared=68
#p opt=(readfc,ts,noeigen,nofreeze,maxcyc=300) freq b3lyp guess=tcheck chkbas em=gd3bj  

Freeze index  [38, 37]  [38, 1]  [30, 11]  [30, 1]  [30, 32]  [30, 31] // Local index  30  38  34  11  (34,)  [37, 38]  [1, 38]

0 1
C            -4.97210127    1.81529586    0.21171494
C            -5.87392640    2.97265825   -1.88676836
C            -6.08858639    2.20620467   -0.62053919
C            -5.50913598    0.87468363    1.17110229
C            -6.91555427    0.75859861    0.97705933
C            -7.27716476    1.57109537   -0.14201071
H            -4.92623103    0.39350481    1.95371801
H            -7.59519079    0.14148262    1.56220227
H            -8.27102776    1.65366449   -0.57945691
H            -6.74994220    2.91764172   -2.55647042
N            -4.65154040    2.47375857   -2.59332313
H            -5.68979813    4.03446573   -1.66255730
C            -5.24372651   -1.74638965   -1.16712249
C            -6.60164922   -1.55858534   -1.57185805
C            -6.63800473   -0.48126145   -2.50650280
C            -5.30379512    0.02558156   -2.66087345
C            -4.44211014   -0.79070103   -1.85104907
H            -4.88255891   -2.48927314   -0.45872636
H            -7.45942771   -2.13185704   -1.22494595
H            -7.52892294   -0.07737983   -2.98562883
H            -3.36631113   -0.66506543   -1.75032874
Fe           -5.88524926    0.19829295   -0.73564992
C            -4.90354182    1.25114332   -3.42845641
H            -5.68069882    1.50032822   -4.17340779
H            -3.96543323    1.06417298   -3.96838552
C            -4.08745352    3.52513511   -3.46657975
H            -3.14089564    3.16669189   -3.88804084
H            -4.79534285    3.77917125   -4.27633188
H            -3.88174143    4.42237943   -2.86972985
Pd           -3.23127130    2.00729583   -1.06599289
O            -1.69282178    1.99464756   -2.36458926
N            -1.77220703    1.71792997    0.24335347
C            -0.53852280    1.59124564   -1.87496021
C            -0.47316104    1.40413926   -0.33898609
C            -1.94948660    2.16189524    1.47150382
O             0.43576965    1.36323199   -2.55962553
O            -3.07961391    2.57090466    1.88542716
H            -3.95216158    2.35608712    0.88246774
H             0.27803507    2.12440781    0.02874515
O            -0.80419200    2.15551007    2.31094234
C            -1.18205298    4.43329703    2.98594350
C            -0.95377395    2.99522706    3.40206368
C            -2.05650830    2.53585126    4.33203458
C             0.34847727    2.95098272    4.17540363
H            -0.17618319    4.83655315    2.68488663
H            -1.60047934    5.00372701    3.83798485
H            -1.84672219    4.44371986    2.09002811
H            -2.49371913    3.46177869    4.79271664
H            -1.64403912    1.94751608    5.17649245
H            -2.88200401    2.03597330    3.80159783
H             0.33806654    3.63434461    5.05651445
H             1.15583781    3.18574323    3.45739933
H             0.49521030    1.89373778    4.48013297
C             0.00000000    0.00000000    0.00000000
C             1.49861196    0.00000000    0.00000000
C            -0.59289370   -0.92856959   -1.03303870
C            -0.47275222   -0.44972160    1.35508088
H             1.92379494    0.96829742   -0.38151523
H             1.93479136   -0.79475514   -0.65603255
H             1.90247604   -0.07900352    1.04907955
H            -1.52460863   -1.39226205   -0.62586231
H             0.09165946   -1.73670777   -1.29595128
H            -0.87472156   -0.39920698   -1.96494782
H            -1.31077981    0.19826168    1.65132105
H            -0.85088681   -1.50489370    1.34661165
H             0.30463346   -0.37324899    2.13837227



