%chk=cyc_rp_11.chk
%mem=300GB
%nprocshared=68
#p opt=(readfc,ts,noeigen,nofreeze,maxcyc=300) freq b3lyp guess=tcheck chkbas em=gd3bj  

Freeze index  [38, 37]  [38, 1]  [30, 11]  [30, 1]  [30, 32]  [30, 31] // Local index  30  38  34  11  (34,)  [37, 38]  [1, 38]

0 1
C            -4.64858089    1.84374994    1.74733943
C            -6.14868711    3.01530337    0.03457783
C            -5.96538269    2.24477545    1.30325924
C            -4.86811593    0.90227392    2.82391224
C            -6.26613866    0.79532979    3.07538038
C            -6.95132903    1.61468366    2.12543077
H            -4.07459307    0.41434602    3.38609229
H            -6.73506046    0.17976996    3.84110137
H            -8.03125577    1.70498015    2.01798172
H            -7.18956278    2.96830491   -0.33052538
N            -5.20918212    2.51218222   -1.01734781
H            -5.89674453    4.07504428    0.19295425
C            -5.35912061   -1.71039441    0.51292953
C            -6.77427381   -1.51285147    0.54972095
C            -7.09122233   -0.43138189   -0.32519415
C            -5.86718846    0.06821276   -0.88464184
C            -4.80252357   -0.75657369   -0.38379276
H            -4.80122917   -2.45839458    1.07274725
H            -7.48612740   -2.08250571    1.14430562
H            -8.08398021   -0.02021353   -0.50349090
H            -3.74768628   -0.63772903   -0.62141983
Fe           -5.82169988    0.23620217    1.12635645
C            -5.71622776    1.29462703   -1.73582151
H            -6.68434845    1.55155618   -2.20245672
H            -4.99313864    1.10440200   -2.54048642
C            -4.93644986    3.56389481   -2.02018454
H            -4.16977739    3.20164963   -2.71522019
H            -5.85878259    3.82554000   -2.56989746
H            -4.54956443    4.45737075   -1.51460068
Pd           -3.38854473    2.03086418   -0.00685194
O            -2.32880293    2.01462068   -1.71858292
N            -1.59740023    1.72733233    0.78476593
C            -1.08239622    1.60233020   -1.61198686
C            -0.54521077    1.40833579   -0.17243991
C            -1.38197434    2.16713152    2.00830785
O            -0.37007928    1.37146211   -2.56556281
O            -2.32514775    2.58105891    2.75322193
H            -3.46718637    2.37565485    2.06986948
H             0.28796705    2.12258589   -0.05424449
O            -0.03288948    2.15041871    2.45112639
C            -0.16697874    4.42752026    3.21502921
C             0.16911600    2.98637585    3.53667446
C            -0.59399823    2.52959299    4.76178717
C             1.64665339    2.93115682    3.86789131
H             0.69870267    4.82609353    2.61773545
H            -0.29656805    4.99679990    4.15607796
H            -1.07663432    4.44566803    2.56946313
H            -0.86035071    3.45612957    5.33738182
H             0.05593217    1.93525734    5.43538483
H            -1.54674127    2.03685620    4.51243711
H             1.91475074    3.61082973    4.71027880
H             2.19314321    3.16417890    2.93540898
H             1.87332060    1.87178138    4.10976542
C             0.00000000    0.00000000    0.00000000
C             1.48601705    0.00000000   -0.00000000
C             2.20816977    0.14381805    1.17451893
C             3.58549994    0.13655062    1.11512888
F             4.34229793    0.27474334    2.24368360
C             4.27117610   -0.00948759   -0.07757212
F             5.61297501   -0.01827605   -0.14953959
C             3.54248313   -0.15291158   -1.24883644
F             4.18350675   -0.29762900   -2.43064549
C             2.16792325   -0.14593247   -1.19179662
H            -0.30932505   -0.66122045   -0.84248900
H            -0.41217488   -0.38986448    0.96789072
H             1.72410500    0.25976385    2.12140173
H             1.58166723   -0.25515520   -2.08376196



