%chk=cyc_rp_4.chk
%mem=300GB
%nprocshared=68
#p opt=(readfc,ts,noeigen,nofreeze,maxcyc=300) freq b3lyp guess=tcheck chkbas em=gd3bj  

Freeze index  [38, 37]  [38, 1]  [30, 11]  [30, 1]  [30, 32]  [30, 31] // Local index  30  38  34  11  (34,)  [37, 38]  [1, 38]

0 1
C            -5.08325000    1.47371241    0.22506551
C            -6.09985862    2.45971472   -1.90817493
C            -6.23847062    1.74418368   -0.60216255
C            -5.53634387    0.54698576    1.23969125
C            -6.93419368    0.32394320    1.08029002
C            -7.37107907    1.05263320   -0.06921985
H            -4.90779033    0.14702882    2.03263102
H            -7.55865160   -0.30900946    1.70842491
H            -8.37558044    1.04406695   -0.48974823
H            -6.98108327    2.31069310   -2.55637786
N            -4.85756741    2.01240428   -2.61455585
H            -5.98715936    3.54159141   -1.73950173
C            -5.12683822   -2.16245039   -0.97368249
C            -6.50129624   -2.08983439   -1.35920484
C            -6.62929130   -1.06550591   -2.34402853
C            -5.33689379   -0.47549675   -2.55002199
C            -4.40623699   -1.18860603   -1.71936749
H            -4.70227592   -2.84225600   -0.23764296
H            -7.31056434   -2.70334029   -0.96745488
H            -7.55444862   -0.74885741   -2.82385664
H            -3.34039677   -0.98366603   -1.64686486
Fe           -5.89625740   -0.24798132   -0.62395011
C            -5.03702380    0.73518056   -3.38412413
H            -5.84234556    0.89237023   -4.12423693
H            -4.09739258    0.58719991   -3.93341820
C            -4.38382679    3.05565714   -3.54909159
H            -3.42168234    2.74331557   -3.97194337
H            -5.12150576    3.21926747   -4.35556637
H            -4.23168060    3.99362259   -3.00076051
Pd           -3.38222702    1.72236446   -1.09576123
O            -1.86899980    1.75201527   -2.42339206
N            -1.88436691    1.60061778    0.19597477
C            -0.68100867    1.45466818   -1.93848213
C            -0.57653832    1.34924890   -0.39690171
C            -2.07156323    2.09177757    1.40453013
O             0.29514093    1.26110365   -2.63106232
O            -3.22048321    2.44137001    1.82115584
H            -4.09266247    2.11678362    0.84783132
H             0.12822489    2.13738291   -0.07994388
O            -0.91455899    2.20678213    2.21970660
C            -1.44032174    4.48357950    2.79109629
C            -1.10432235    3.08734854    3.27167516
C            -2.15601151    2.59932597    4.24516318
C             0.21076827    3.17224800    4.01947140
H            -0.47060194    4.94026461    2.45035150
H            -1.88332799    5.06526275    3.62286278
H            -2.11920706    4.40318196    1.90950164
H            -2.64943360    3.51441858    4.66926581
H            -1.68885066    2.08384085    5.10853682
H            -2.95316126    2.01751392    3.75656181
H             0.16724921    3.89624730    4.86645382
H             0.98727619    3.42650537    3.27458056
H             0.43673059    2.14423720    4.37202249
C             0.00000000    0.00000000    0.00000000
C             1.48768634    0.00000000    0.00000000
C             2.17755083    0.33702693    1.14572874
C             3.55804616    0.35613500    1.21065540
C             4.30442880    0.02854605    0.09699327
C             5.78385503    0.03808912    0.12935317
F             6.31657492   -1.18280967    0.48544031
F             6.22182733    0.96135049    1.05287860
F             6.26043904    0.32791625   -1.14542767
C             3.63035737   -0.31062404   -1.05601129
C             2.23865896   -0.32610602   -1.10862349
H            -0.31781597   -0.78636798   -0.72137996
H            -0.41547777   -0.26200581    1.00011352
H             1.61935537    0.59885474    2.03581859
H             4.10922951    0.61815997    2.10141727
H             4.20583572   -0.56814869   -1.93144279
H             1.70751553   -0.59121826   -2.00989407



