%chk=cyc_rp_30.chk
%mem=300GB
%nprocshared=68
#p opt=(readfc,ts,noeigen,nofreeze,maxcyc=300) freq b3lyp guess=tcheck chkbas em=gd3bj  

Freeze index  [38, 37]  [38, 1]  [30, 11]  [30, 1]  [30, 32]  [30, 31] // Local index  30  38  34  11  (34,)  [37, 38]  [1, 38]

0 1
C            -5.11416926    1.36029923    0.23826887
C            -6.16760635    2.28901730   -1.90279663
C            -6.28087845    1.59117541   -0.58482378
C            -5.53894601    0.43954958    1.27043481
C            -6.93234125    0.18207399    1.12450053
C            -7.39364464    0.88235948   -0.03309624
H            -4.89600554    0.06663817    2.06501849
H            -7.53780693   -0.45503113    1.76687004
H            -8.40050601    0.84416774   -0.44626942
H            -7.04953594    2.10965834   -2.54229794
N            -4.92016204    1.85918994   -2.61094861
H            -6.07868766    3.37571515   -1.75183241
C            -5.08220394   -2.29435208   -0.90325581
C            -6.46054634   -2.25931207   -1.28005791
C            -6.61873516   -1.25383374   -2.27980733
C            -5.34167715   -0.63770757   -2.50418827
C            -4.38926069   -1.31613853   -1.66916245
H            -4.63714292   -2.95257170   -0.15974345
H            -7.25281620   -2.88493564   -0.87302473
H            -7.55415852   -0.96605441   -2.75791147
H            -3.32795117   -1.08573031   -1.60746510
Fe           -5.89307931   -0.39272749   -0.57796288
C            -5.07539110    0.56622021   -3.35919562
H            -5.88910633    0.69324339   -4.09591219
H            -4.13634304    0.43115309   -3.91279718
C            -4.47688327    2.89815598   -3.56500169
H            -3.51069146    2.60130003   -3.98977545
H            -5.22357200    3.03210011   -4.36865280
H            -4.34264882    3.84788590   -3.03247112
Pd           -3.42829474    1.62698361   -1.09836750
O            -1.92516965    1.67034417   -2.43705129
N            -1.91932257    1.55994194    0.18440195
C            -0.72739774    1.40795701   -1.95604061
C            -0.61009941    1.32927019   -0.41378676
C            -2.10958571    2.06567593    1.38645001
O             0.24823721    1.22590119   -2.65245624
O            -3.26339847    2.39539360    1.80574863
H            -4.13444651    2.03561999    0.84384849
H             0.07847433    2.13823276   -0.11419634
O            -0.95004324    2.21997749    2.19146543
C            -1.52416790    4.49286331    2.73099284
C            -1.15289108    3.11244058    3.23089198
C            -2.18646220    2.61587096    4.21934755
C             0.16492891    3.23920628    3.96788005
H            -0.56753949    4.96620453    2.37626061
H            -1.97479993    5.07728923    3.55671831
H            -2.20697461    4.38305596    1.85562119
H            -2.69792489    3.52599709    4.63262619
H            -1.70173351    2.12489085    5.08730769
H            -2.97330417    2.00832965    3.74557802
H             0.11049803    3.97528017    4.80375123
H             0.93032297    3.49940354    3.21359692
H             0.41686258    2.22232382    4.33480910
C             0.00000000    0.00000000    0.00000000
C             1.50151415    0.00000000   -0.00000000
C             2.12270592    0.99181038    0.91503546
H            -0.41033176   -0.39422631    0.95371786
H            -0.30936510   -0.76149593   -0.77588433
H             1.89377806    0.13032989   -1.02945498
H             1.81363509   -1.03434602    0.30085416
H             2.72828113    1.71978017    0.33398004
H             1.40670611    1.50319114    1.58777143
H             2.85633186    0.48427364    1.59942664



