%chk=cyc_sp_20.chk
%mem=300GB
%nprocshared=96
#p opt=(calcfc,ts,noeigen,maxstep=5) freq b3lyp def2svp em=gd3bj  

Freeze index  [38, 37]  [38, 1]  [30, 11]  [30, 1]  [30, 32]  [30, 31] // Local index  30  38  34  11  (34,)  [37, 38]  [1, 38]

0 1
C            -1.13808655    6.23889105    0.85183886
C             1.42048315    6.44480673    0.32953181
C             0.02127757    6.97542729    0.43106735
C            -2.28511351    7.05593655    0.64789789
C            -1.84762383    8.31637027    0.13488611
C            -0.42624760    8.27590860    0.01898015
H            -3.31525851    6.76777459    0.84745809
H            -2.48579430    9.15808996   -0.12757946
H             0.20970785    9.07445203   -0.36086566
H             2.13788827    7.28256835    0.26242796
N             1.67380326    5.52480404   -0.83021766
H             1.66421052    5.85988953    1.22662063
C            -2.13469024    5.61266469   -2.55230333
C            -2.05480361    6.94946050   -3.03883783
C            -0.68107263    7.34055713   -3.03337525
C             0.08639890    6.22878858   -2.56219857
C            -0.79975864    5.12008139   -2.28784664
H            -3.03947188    5.01796745   -2.45096513
H            -2.89457147    7.57324045   -3.34048710
H            -0.29225859    8.32339942   -3.29568740
Fe           -1.23089944    6.80199952   -1.14094952
H            -1.13338032    5.21582387    1.22157764
C             1.52592958    6.18840601   -2.16321562
H             1.97578855    7.19643294   -2.13916166
H             2.10338895    5.58105099   -2.87673016
C             3.03129213    4.95734449   -0.68191962
H             3.22826492    4.26201945   -1.50740663
H             3.79011324    5.76081988   -0.69253422
H             3.08267952    4.40067310    0.26092889
Pd            0.26217197    3.91856075   -0.80502125
O             1.15009181    3.10380743    0.79710237
N            -0.82238397    2.25159691   -0.71602756
C             0.56856290    2.03091966    1.29358244
C            -0.51627292    1.36994654    0.40878937
C            -1.60957820    1.95757283   -1.73165585
O             0.87906335    1.53704654    2.35567830
O            -1.68864035    2.70146915   -2.75849029
H            -1.41038003    1.23831667    1.04355899
H            -0.97780556    3.81193305   -2.49289320
O            -2.38662809    0.77452554   -1.61773292
C            -3.85359364    1.79243503   -0.00571826
C            -3.71048448    1.04817297   -1.31678917
C            -4.40678441    1.80364398   -2.42868825
C            -4.41199846   -0.28532519   -1.15708848
H            -3.72138947    1.02584086    0.80662006
H            -4.85621769    2.25971048    0.04768995
H            -3.02510239    2.53521835    0.07457352
H            -5.17654837    2.45782282   -1.93854431
H            -4.97475660    1.11201290   -3.08322692
H            -3.73022542    2.47951053   -2.97472580
H            -5.48289739   -0.16573696   -0.87015833
H            -3.83028054   -0.86716357   -0.41849122
H            -4.30569487   -0.81263278   -2.12806952
C             0.00000000    0.00000000    0.00000000
C             1.48357064    0.00000000    0.00000000
C             2.33875470   -0.49651649    0.96889368
N             3.59671959   -0.28410496    0.58838917
C             3.57101019    0.34770996   -0.62005699
C             4.61862181    0.77514084   -1.42018268
C             4.38539797    1.40484925   -2.63880987
C             3.07308499    1.59365544   -3.03026159
C             2.04704240    1.15640601   -2.20965082
C             2.27774273    0.52891288   -0.99615914
H            -0.34730650   -0.27462104   -1.02797941
H            -0.33144017   -0.73638264    0.74138189
H             1.98164465   -0.97380266    1.88190751
H             4.46384941   -0.55329347    1.12467200
H             5.64603992    0.63499192   -1.12526556
H             5.22673718    1.72189807   -3.22860813
H             2.88577928    2.07915375   -3.97743772
H             1.01371888    1.30977693   -2.53326895



