%chk=cyc_rp_31.chk
%mem=300GB
%nprocshared=68
#p opt=(readfc,ts,noeigen,nofreeze,maxcyc=300) freq b3lyp guess=tcheck chkbas em=gd3bj  

Freeze index  [38, 37]  [38, 1]  [30, 11]  [30, 1]  [30, 32]  [30, 31] // Local index  30  38  34  11  (34,)  [37, 38]  [1, 38]

0 1
C            -4.58616891   -1.78487988   -1.96042736
C            -6.03502854   -3.21165915   -0.40428953
C            -5.88552414   -2.28528395   -1.56891500
C            -4.84459808   -0.72726833   -2.91343181
C            -6.24668870   -0.64163101   -3.14995890
C            -6.89739031   -1.59575265   -2.30767088
H            -4.07185639   -0.14537398   -3.41152137
H            -6.74110018    0.04552075   -3.83445743
H            -7.97282879   -1.73805877   -2.21214806
H            -7.07528543   -3.24792043   -0.03621771
N            -5.10977674   -2.80712562    0.70143203
H            -5.74540290   -4.23404887   -0.69139907
C            -5.42003167    1.56278931   -0.29957798
C            -6.82720702    1.31951265   -0.36036924
C            -7.10070983    0.12810520    0.37532642
C            -5.85683299   -0.39108173    0.86935466
C            -4.82511720    0.52731797    0.47345416
H            -4.89221092    2.39368722   -0.76343595
H            -7.56194391    1.93125753   -0.88065724
H            -8.07704720   -0.33791581    0.50182186
H            -3.76559968    0.41899733    0.69476208
Fe           -5.81420936   -0.30961100   -1.14707776
C            -5.65757782   -1.70618364    1.56374274
H            -6.61362848   -2.05366140    1.99531085
H            -4.93831232   -1.58961651    2.38569475
C            -4.79450413   -3.96307566    1.56775876
H            -4.03842846   -3.66086781    2.30200428
H            -5.70425043   -4.32374095    2.08120131
H            -4.37762071   -4.77308694    0.95646002
Pd           -3.31235546   -2.13921944   -0.24234880
O            -2.24630831   -2.29400613    1.45850681
N            -1.53699325   -1.67554035   -0.99069688
C            -1.01620570   -1.82636254    1.40332382
C            -0.49284546   -1.43788071   -0.00155544
C            -1.31115789   -1.95391040   -2.25892935
O            -0.30853658   -1.68812981    2.37803719
O            -2.24195534   -2.30773873   -3.04901669
H            -3.38764827   -2.22959709   -2.34568114
H             0.36522631   -2.10125359   -0.20639973
O             0.03444760   -1.83363562   -2.69629214
C             0.11600534   -5.19220255   -2.49620699
C             1.35491107   -4.32457061   -2.49975400
C             2.55450184   -5.26855045   -2.54386649
C             1.44082073   -3.45872856   -3.72707174
C             1.48121683   -4.28114497   -4.99867098
C             1.98794168   -3.34266490   -6.07644898
C             1.00901674   -2.21581248   -6.23926365
C             1.67599695   -1.20568075   -7.16413911
C             0.67415594   -1.51326874   -4.96176862
C             0.27280325   -2.51595219   -3.87128218
H             0.35490916   -6.22269719   -2.87362563
H            -0.20334939   -5.34621846   -1.43919909
H            -0.67283159   -4.72431032   -3.10572464
H             1.39851587   -3.76667881   -1.56934823
H             3.43594968   -4.73456750   -2.89993953
H             2.70005701   -5.62039350   -1.50107800
H             2.30359132   -6.13098719   -3.18501121
H             2.34940054   -2.82718017   -3.62551808
H             0.43549610   -4.54400186   -5.27390723
H             2.15840900   -5.12940292   -4.95710204
H             2.10628618   -3.86896719   -7.01863310
H             2.94713503   -2.90700310   -5.70743452
H             0.09366822   -2.59752049   -6.71979767
H             1.35367820   -1.43893339   -8.19052859
H             1.47075653   -0.16928038   -6.84764755
H             2.79149811   -1.32196666   -7.15654274
H            -0.13968873   -0.81103675   -5.14451380
H             1.61541046   -1.01598754   -4.59616893
H            -0.65506740   -3.00406648   -4.20015187
C             0.00000000    0.00000000    0.00000000
C             1.48759672    0.00000000    0.00000000
C             2.15557986   -0.00123999    1.20720948
C             3.54168771   -0.00133535    1.26959585
C             4.30343159   -0.00019685    0.12268395
C             3.61994723    0.00103830   -1.08143400
C             2.24279853    0.00114872   -1.14986129
H            -0.39496422    0.48332421   -0.91424020
H            -0.42641617    0.56006396    0.85380239
H             1.57307352   -0.00218183    2.13145860
H             4.04407998   -0.00227427    2.22923160
H             5.38986548   -0.00027622    0.13096119
H             4.20185842    0.00190415   -1.99612616
H             1.71470925    0.00223655   -2.11483706



