%chk=cyc_rp_23.chk
%mem=300GB
%nprocshared=68
#p opt=(readfc,ts,noeigen,nofreeze,maxcyc=300) freq b3lyp guess=tcheck chkbas em=gd3bj  

Freeze index  [38, 37]  [38, 1]  [30, 11]  [30, 1]  [30, 32]  [30, 31] // Local index  30  38  34  11  (34,)  [37, 38]  [1, 38]

0 1
C             3.27251826   -4.02895975    1.05831037
C             2.85822597   -6.22013842   -0.20006412
C             3.76760512   -5.27783463    0.52240349
C             4.44669372   -3.26786105    1.42657997
C             5.60918094   -4.05773901    1.19450868
C             5.19415058   -5.29921389    0.62029548
H             4.42204423   -2.27571759    1.87249741
H             6.63707627   -3.76128641    1.39619467
H             5.85037213   -6.09730337    0.27625047
H             3.41916120   -6.94675776   -0.81350308
N             1.89499778   -5.45678190   -1.05553262
H             2.24940040   -6.78860212    0.51951171
C             4.85264675   -2.18034174   -1.89911790
C             5.76689281   -3.24656745   -2.16435799
C             5.00577819   -4.41994808   -2.44612334
C             3.61326858   -4.09283089   -2.32468709
C             3.53043433   -2.69124164   -2.01920409
H             5.11820718   -1.15542207   -1.64780072
H             6.85314249   -3.17874938   -2.14903679
H             5.40793438   -5.40771530   -2.66749110
H             2.60973323   -2.13284427   -1.86501505
Fe            4.55094445   -3.76613108   -0.56729271
C             2.46641704   -5.05840990   -2.38614157
H             2.77557883   -5.97830632   -2.91456209
H             1.63188719   -4.61247205   -2.94402008
C             0.66852177   -6.24734671   -1.29412780
H            -0.05559947   -5.62540748   -1.83350044
H             0.89989845   -7.15782213   -1.87622703
H             0.22751485   -6.53445173   -0.33148653
Pd            1.38218158   -3.70052182    0.04903042
O            -0.24683297   -3.34779318   -1.08023197
N             0.68917907   -2.13789749    1.05149826
C            -0.86355622   -2.20728206   -0.84836422
C            -0.39295989   -1.41399818    0.39571666
C             0.96408809   -2.06000404    2.33806117
O            -1.74862366   -1.76998948   -1.55223454
O             1.81276300   -2.82507993    2.89503399
H             2.35519331   -3.56978598    1.91289557
H            -1.26187969   -1.35838942    1.07409318
O             0.25890659   -1.06835766    3.07001339
C            -0.35485257   -2.64601242    4.77911375
C             0.27849601   -1.31477778    4.43270872
C             1.67536574   -1.23120548    5.01034672
C            -0.55625988   -0.23398013    5.08916095
H            -1.46707751   -2.48936254    4.72045133
H            -0.04893650   -2.94757033    5.79986036
H            -0.06408652   -3.39182463    4.00208259
H             1.71235252   -1.95737359    5.86593702
H             1.86124449   -0.23330822    5.45647266
H             2.45177573   -1.55310219    4.29883121
H            -0.63408627   -0.37438125    6.19264575
H            -1.53968293   -0.23718652    4.58384666
H            -0.07356676    0.73231722    4.83335979
C             0.00000000    0.00000000    0.00000000
C             1.53531894    0.00000000    0.00000000
O            -0.49898945    0.80952485    0.97319156
C            -1.36350779    1.80201221    0.59158566
C            -0.66489254    2.72449188   -0.36321522
C            -1.66878649    2.61694516    1.85686355
C            -2.64851366    1.24779479    0.01975109
H             1.93267941    0.64614022   -0.81270128
H             1.91523852   -1.02157664   -0.20836318
H             1.91709135    0.31956773    0.97821520
H            -0.31777430    0.18314513   -1.02201054
H            -0.11853993    3.49766817    0.23986779
H            -1.37530749    3.29590304   -0.99966672
H             0.07115981    2.17294778   -0.97566110
H            -2.29274803    2.02545948    2.53696570
H            -0.69539424    2.89267191    2.31466236
H            -2.16235827    3.58071793    1.59195525
H            -2.60077741    1.18753986   -1.09464810
H            -2.81425681    0.25717565    0.48693871
H            -3.51199444    1.89365880    0.29858745



