%chk=cyc_rp_3.chk
%mem=300GB
%nprocshared=68
#p opt=(readfc,ts,noeigen,nofreeze,maxcyc=300) freq b3lyp guess=tcheck chkbas em=gd3bj  

Freeze index  [38, 37]  [38, 1]  [30, 11]  [30, 1]  [30, 32]  [30, 31] // Local index  30  38  34  11  (34,)  [37, 38]  [1, 38]

0 1
C             2.89118878   -4.18398312    1.48230426
C             2.32183910   -6.43067008    0.39388933
C             3.29070934   -5.50999905    1.06509840
C             4.11682381   -3.49480323    1.82352500
C             5.21298914   -4.39499046    1.69227974
C             4.70750522   -5.64137178    1.20828542
H             4.16616829   -2.47026839    2.18641903
H             6.25730226   -4.16900749    1.90077916
H             5.30136036   -6.51707587    0.95056675
H             2.83329404   -7.24999818   -0.14094397
N             1.44782255   -5.66418032   -0.55000505
H             1.64981129   -6.88458515    1.13816661
C             4.69313657   -2.72628374   -1.56542821
C             5.51928053   -3.88307874   -1.71491700
C             4.66789805   -5.00870891   -1.92375638
C             3.30582354   -4.55822781   -1.87222716
C             3.33544420   -3.13399705   -1.68428256
H             5.03898540   -1.70952411   -1.39012432
H             6.60668333   -3.90454645   -1.67171203
H             4.98959873   -6.04145359   -2.05167998
H             2.46225195   -2.49023996   -1.60437952
Fe            4.22575453   -4.16478878   -0.11913375
C             2.08266825   -5.42710689   -1.89034363
H             2.32484292   -6.41038534   -2.33253544
H             1.30270608   -4.96164811   -2.50802979
C             0.16448970   -6.36745295   -0.76125883
H            -0.49094294   -5.73482798   -1.37140349
H             0.33126682   -7.33940774   -1.26008692
H            -0.32220162   -6.53558285    0.20748187
Pd            1.06031210   -3.78534046    0.39195347
O            -0.50533685   -3.39427131   -0.81185205
N             0.47925867   -2.09237274    1.24238058
C            -1.02799995   -2.19117129   -0.69248088
C            -0.52132530   -1.33852508    0.49696130
C             0.72904998   -1.93036521    2.52622027
O            -1.85555715   -1.74229963   -1.45646118
O             1.49593314   -2.71399233    3.16935922
H             1.99620582   -3.58054121    2.26811902
H            -1.39827478   -1.15457481    1.14150032
O             0.09366866   -0.82599012    3.15315230
C            -0.69284906   -2.19902415    4.96502602
C             0.05969514   -0.95850656    4.53131426
C             1.44443461   -0.94312654    5.14299646
C            -0.69535668    0.23884106    5.07180096
H            -1.78596744   -1.95611448    4.85961310
H            -0.43816314   -2.43860345    6.01582680
H            -0.44823847   -3.02866734    4.26045806
H             1.39900739   -1.59585340    6.05546942
H             1.70396701    0.06967823    5.51211384
H             2.20733977   -1.38660865    4.48422212
H            -0.81115082    0.19803647    6.18012168
H            -1.66314810    0.27501747    4.53837360
H            -0.12612973    1.13702115    4.75335057
C             0.00000000    0.00000000    0.00000000
C             1.51182701    0.00000000    0.00000000
O            -0.44448771    0.97102411    0.89410935
C            -1.19347301    1.90897466    0.21922802
C            -1.65108601    2.93035061    1.20750960
C            -2.84250835    2.80010607    1.89067421
C            -3.25713887    3.74932376    2.80222166
C            -2.50101559    4.87159512    3.07299276
C            -1.31000036    4.99827375    2.38767520
C            -0.89232076    4.05078710    1.47532441
H             1.84268609   -1.01118301   -0.33912768
H             1.86474314    0.11855272    1.04316290
H             1.91907927    0.81131104   -0.61969671
H            -0.35611683    0.22570380   -1.00863124
H            -0.62860070    2.42656628   -0.58347889
H            -2.08037245    1.38833613   -0.21375950
H            -3.45116136    1.91066302    1.68219179
H            -4.20940873    3.63769904    3.34315053
H            -2.82417631    5.61758468    3.78763379
H            -0.70497220    5.86705614    2.58453587
H             0.05213010    4.15097251    0.93169516



