%chk=cyc_rp_17.chk
%mem=300GB
%nprocshared=68
#p opt=(readfc,ts,noeigen,nofreeze,maxcyc=300) freq b3lyp guess=tcheck chkbas em=gd3bj  

Freeze index  [38, 37]  [38, 1]  [30, 11]  [30, 1]  [30, 32]  [30, 31] // Local index  30  38  34  11  (34,)  [37, 38]  [1, 38]

0 1
C            -4.98402580    1.78235353    0.21122492
C            -5.89719162    2.92326989   -1.89135600
C            -6.10452486    2.16156661   -0.62104605
C            -5.51304239    0.84279954    1.17608837
C            -6.91895315    0.71617772    0.98497939
C            -7.28794798    1.52071111   -0.13742861
H            -4.92557574    0.36943772    1.96005911
H            -7.59339409    0.09730720    1.57426617
H            -8.28307147    1.59436095   -0.57359994
H            -6.77391418    2.85900779   -2.55930756
N            -4.67259372    2.42927265   -2.59752510
H            -5.71994910    3.98739148   -1.67263408
C            -5.23359552   -1.78779697   -1.14977360
C            -6.59343444   -1.61123893   -1.55313545
C            -6.63868673   -0.53876809   -2.49295873
C            -5.30822565   -0.02359707   -2.65204228
C            -4.43965264   -0.83001646   -1.83969844
H            -4.86619598   -2.52472933   -0.43837267
H            -7.44670510   -2.18864588   -1.20199047
H            -7.53313085   -0.14331858   -2.97254892
H            -3.36457207   -0.69655545   -1.74140134
Fe           -5.88767093    0.15454997   -0.72670839
C            -4.91761675    1.20090074   -3.42626301
H            -5.69768434    1.44113594   -4.17111219
H            -3.97914466    1.01769712   -3.96685125
C            -4.11714003    3.48019245   -3.47684447
H            -3.16885260    3.12615851   -3.89814452
H            -4.82808161    3.72543451   -4.28663369
H            -3.91657614    4.38172478   -2.88472269
Pd           -3.24665635    1.97997681   -1.07032987
O            -1.71029928    1.97147661   -2.37143484
N            -1.78349347    1.70697104    0.23795577
C            -0.55246683    1.57835454   -1.88178709
C            -0.48329677    1.39920611   -0.34503115
C            -1.96177569    2.15571289    1.46422355
O             0.42222989    1.35364860   -2.56697037
O            -3.09398575    2.55902235    1.87804818
H            -3.96669842    2.33336005    0.87761692
H             0.26356849    2.12636988    0.01792034
O            -0.81508185    2.16124152    2.30175576
C            -1.20737521    4.43966944    2.96627893
C            -0.96859553    3.00524049    3.38902044
C            -2.06663254    2.54290380    4.32307319
C             0.33520062    2.97365885    4.16037553
H            -0.20478031    4.84830094    2.66156835
H            -1.62828191    5.01138892    3.81623177
H            -1.87357619    4.44118053    2.07144256
H            -2.50939606    3.46806770    4.77997044
H            -1.64876375    1.96152909    5.16969432
H            -2.88956880    2.03482103    3.79646888
H             0.32157622    3.66123123    5.03816065
H             1.13975441    3.21040928    3.43987838
H             0.48965210    1.91894099    4.47000825
C             0.00000000    0.00000000    0.00000000
C             1.51805885    0.00000000    0.00000000
C             2.04146608    0.96528735    1.00488439
C             3.39257498    0.68426017    1.52824300
C             4.26143039   -0.18279830    0.67891327
C             3.56328692   -1.31602303    0.00009964
C             2.08339856   -1.36595277    0.25685872
H            -0.36455930   -0.24029354    1.01699425
H            -0.40364333   -0.76028457   -0.68943909
H             1.88286312    0.32694977   -1.00530006
H             1.28818669    1.00325423    1.84753288
H             1.96325288    1.99476833    0.54466689
H             3.92614497    1.65074941    1.67787397
H             3.30029380    0.24734110    2.56619588
H             5.04111055   -0.62234622    1.34981257
H             4.83122914    0.41588302   -0.07112958
H             3.98508462   -2.30925187    0.26585850
H             3.68976126   -1.23367319   -1.11217056
H             1.92891079   -1.72950363    1.27764961
H             1.64468828   -2.11729390   -0.43246608



