%chk=cyc_rp_19.chk
%mem=300GB
%nprocshared=68
#p opt=(readfc,ts,noeigen,nofreeze,maxcyc=300) freq b3lyp guess=tcheck chkbas em=gd3bj  

Freeze index  [38, 37]  [38, 1]  [30, 11]  [30, 1]  [30, 32]  [30, 31] // Local index  30  38  34  11  (34,)  [37, 38]  [1, 38]

0 1
C            -4.58215766    2.00055570    1.75029179
C            -6.02781496    3.25006922    0.04582725
C            -5.88038593    2.45757937    1.30562518
C            -4.84295376    1.05517798    2.81416589
C            -6.24523536    0.99928578    3.05834447
C            -6.89379249    1.85606442    2.11572318
H            -4.07152105    0.53010603    3.37362064
H            -6.74118075    0.39299622    3.81437445
H            -7.96890933    1.98934308    2.00481294
H            -7.06799191    3.24780626   -0.32425133
N            -5.10346864    2.72390680   -1.00825294
H            -5.73590745    4.29726427    0.21840038
C            -5.42350926   -1.50811093    0.46890093
C            -6.83014120   -1.25647975    0.50212368
C            -7.10097245   -0.15295199   -0.36065450
C            -5.85593702    0.30575833   -0.90865729
C            -4.82627961   -0.56562598   -0.41355244
H            -4.89755689   -2.28390452    1.02176748
H            -7.56625396   -1.80541912    1.08656869
H            -8.07626650    0.29843152   -0.53805745
H            -3.76652994   -0.48474697   -0.64520222
Fe           -5.81350283    0.44726623    1.10444446
C            -5.65373055    1.53573518   -1.74391619
H            -6.60899668    1.83557900   -2.21144050
H            -4.93472778    1.32755399   -2.54779721
C            -4.78560912    3.77647276   -1.99680440
H            -4.03021374    3.39338795   -2.69301317
H            -5.69454727    4.08027455   -2.54714620
H            -4.36691926    4.64807881   -1.47854160
Pd           -3.30756191    2.16025703    0.00392659
O            -2.24115892    2.12399078   -1.70335455
N            -1.53322913    1.77806316    0.79932590
C            -1.01211234    1.66255826   -1.59658196
C            -0.48962437    1.43036035   -0.15728077
C            -1.30677327    2.19421564    2.02913131
O            -0.30473859    1.41600430   -2.54991093
O            -2.23677700    2.63515274    2.77510484
H            -3.38265047    2.48241540    2.08441035
H             0.36993337    2.11037315   -0.02669844
O             0.03855333    2.11995628    2.47743858
C            -0.01115297    4.39102984    3.26893911
C             0.26754203    2.93414680    3.57411682
C            -0.51841589    2.49225898    4.79021729
C             1.74026517    2.81781213    3.91090052
H             0.87208067    4.76311605    2.68031787
H            -0.12311860    4.95334590    4.21641459
H            -0.91636908    4.45221621    2.61978721
H            -0.75152465    3.42129244    5.37611834
H             0.10489926    1.86505499    5.45915045
H            -1.48827857    2.03980240    4.53072990
H             2.03041266    3.47626493    4.76278224
H             2.29974280    3.04091887    2.98371021
H             1.92472797    1.74758916    4.14058231
C             0.00000000    0.00000000    0.00000000
C             1.48264619   -0.00000000   -0.00000000
C             2.16604040    0.13152941    1.19532383
C             3.53364089    0.13352859    1.21334402
C             4.28709668    0.00685738    0.06203496
O             5.66179754    0.02489397    0.22582378
C             6.43939537    1.14851936    0.19583943
O             5.87620984    2.22584346    0.00925954
O             7.80595488    1.20323008    0.35461983
C             8.48686802    2.39439231    0.30553628
C             8.00498155    3.35737266    1.38971756
C             8.55487345    3.09646126   -0.99980270
C             9.94241903    2.07238656    0.69152458
C             3.62787988   -0.12250172   -1.11357757
C             2.24464335   -0.12579036   -1.14334407
H            -0.33268164   -0.34832371    1.00277525
H            -0.42228175   -0.66758023   -0.77674161
H             1.60852847    0.23397285    2.12634798
H             4.00812207    0.24193614    2.19854676
H             7.16876995    3.93721276    0.95390589
H             8.83715570    3.99105011    1.73308056
H             7.61749632    2.69695303    2.21163096
H             8.96975444    2.38432243   -1.76187953
H             7.63407864    3.54218775   -1.36629138
H             9.31116595    3.90768562   -0.92074223
H            10.65030091    2.72221039    0.16269804
H            10.18530924    1.02104388    0.42684489
H            10.10460873    2.20639568    1.77264303
H             4.20488129   -0.22217298   -2.01946902
H             1.69249313   -0.22952443   -2.08613829



