%chk=cyc_rp_33.chk
%mem=300GB
%nprocshared=68
#p opt=(readfc,ts,noeigen,nofreeze,maxcyc=300) freq b3lyp guess=tcheck chkbas em=gd3bj  

Freeze index  [38, 37]  [38, 1]  [30, 11]  [30, 1]  [30, 32]  [30, 31] // Local index  30  38  34  11  (34,)  [37, 38]  [1, 38]

0 1
C             0.92774965   -0.83294161    5.14853398
C            -1.11682179   -1.04495463    6.67535633
C             0.31608467   -1.33450909    6.35943929
C             2.19479944   -1.52236382    5.03511620
C             2.37964376   -2.35432585    6.17652435
C             1.21099502   -2.25235989    6.99328254
H             2.91082981   -1.36564063    4.23104098
H             3.24787759   -2.97809556    6.38197888
H             1.01834017   -2.80982020    7.90874013
H            -1.52027738   -1.73694078    7.43516559
N            -1.94469273   -1.10667759    5.42909470
H            -1.22128226   -0.02104092    7.06560968
C             0.60803854   -4.31671280    3.59235286
C             0.50648529   -4.95167547    4.86888910
C            -0.63477311   -4.41697447    5.53756944
C            -1.22823252   -3.42247441    4.68927056
C            -0.46819333   -3.39449652    3.47017603
H             1.37432116   -4.50305865    2.84253343
H             1.18305967   -5.70654083    5.26537086
H            -0.97297016   -4.67950937    6.53912600
H            -0.66366093   -2.74462045    2.62004315
Fe            0.67081597   -2.90170425    5.13291127
C            -2.35536686   -2.50215278    5.05528176
H            -2.93047811   -2.92649712    5.89801400
H            -3.03843143   -2.39019347    4.20239433
C            -3.16573911   -0.28523214    5.57205236
H            -3.69617533   -0.26747212    4.61267505
H            -3.81939653   -0.69474217    6.36349009
H            -2.88435527    0.74330553    5.82998262
Pd           -0.73540434   -0.28337573    3.87112003
O            -2.31751065   -0.00321566    2.65794675
N             0.21526772    0.62719091    2.38987728
C            -2.03272017    0.38907770    1.43325243
C            -0.56174094    0.79437498    1.16782512
C             1.29531144    1.32199885    2.68590764
O            -2.84960347    0.43558354    0.53852259
O             1.84980527    1.25491783    3.82776826
H             1.17399456    0.32125091    4.52415866
H            -0.58067962    1.86180041    0.88755213
O             1.80888479    2.15096048    1.65369518
C             1.95179974    4.04476511    3.13010916
C             2.65313587    3.13237845    2.14573589
C             3.90566211    2.55218719    2.76738787
C             3.07680688    3.98304234    0.96559001
H             1.32598640    4.74845330    2.51512511
H             2.70507227    4.59807864    3.72413784
H             1.26909586    3.42927017    3.76227967
H             4.20626014    3.25032358    3.59380743
H             4.74776540    2.56196018    2.04617726
H             3.73385350    1.57196645    3.23891029
H             3.73076694    4.83253916    1.27241163
H             2.15085408    4.31292701    0.45936750
H             3.59635324    3.30178868    0.25981209
C             0.00000000    0.00000000    0.00000000
C             1.48550341   -0.00000000    0.00000000
C             2.22505493    0.95834646   -0.65186454
C             3.61764139    0.94447070   -0.64241784
C             4.30698249   -0.02814668    0.01945326
O             5.63561230   -0.18402693    0.12682651
C             6.76082460    0.44731386   -0.29370438
C             6.97644130    1.84291009    0.15270462
C             7.58063288    2.04777521    1.40473676
C             7.83687030    3.30286985    1.89299475
C             7.50512113    4.42636791    1.16032295
C             6.91001141    4.22419857   -0.07322076
C             6.65015638    2.96555080   -0.56921722
C             3.52326760   -0.99602196    0.67764211
C             2.15326532   -0.97678622    0.66440984
H            -0.35803640   -1.06272285    0.13316610
H            -0.41727414    0.33085840   -0.97328375
H             1.70698408    1.75610128   -1.19450532
H             4.16779366    1.69137982   -1.15668619
H             7.64799884   -0.13711603    0.11593517
H             6.93566480    0.36492577   -1.41640890
H             7.83583249    1.18152365    1.96849036
H             8.30527548    3.46562243    2.86353399
H             7.71490255    5.40919098    1.56196411
H             6.64877003    5.08731077   -0.64938461
H             6.19089208    2.85176951   -1.53740300
H             3.99478476   -1.80000615    1.22450743
H             1.59510443   -1.76235624    1.19863936



