%chk=cyc_sp_24.chk
%mem=300GB
%nprocshared=96
#p opt=(calcfc,ts,noeigen,maxstep=5) freq b3lyp def2svp em=gd3bj  

Freeze index  [38, 37]  [38, 1]  [30, 11]  [30, 1]  [30, 32]  [30, 31] // Local index  30  38  34  11  (34,)  [37, 38]  [1, 38]

0 1
C            -0.71557261    6.35866225    0.00148553
C             1.68541315    6.30274112    1.04725084
C             0.54948689    6.95974003    0.32084332
C            -1.43987337    7.25697951   -0.83112519
C            -0.65021745    8.43554825   -1.00631283
C             0.56666633    8.26269339   -0.28195325
H            -2.42334671    7.07478179   -1.25966281
H            -0.92475887    9.30971493   -1.59376614
H             1.38988277    8.97411367   -0.23106462
H             2.40033348    7.06770162    1.40043906
N             2.45186444    5.28580048    0.25102285
H             1.30511213    5.76239496    1.92457443
C             0.35153251    5.58743938   -3.35113498
C             0.84395681    6.87507763   -3.71117218
C             2.00088558    7.14367589   -2.91776558
C             2.23099007    6.00430604   -2.08353685
C             1.23015008    4.99927790   -2.36284593
H            -0.50810721    5.08282120   -3.78581199
H             0.40366263    7.54762402   -4.44542428
H             2.57661160    8.06806261   -2.91434157
Fe            0.41159981    6.78805209   -1.68434293
H            -1.03742731    5.36726256    0.31282387
C             3.16815637    5.86567782   -0.92786896
H             3.63252235    6.82961715   -0.65537092
H             3.97771539    5.16198339   -1.17458901
C             3.40688897    4.61319206    1.15783305
H             3.96145701    3.84766151    0.60094772
H             4.11933132    5.34437173    1.58126784
H             2.84726094    4.12095189    1.96157623
Pd            1.11094174    3.81512635   -0.53153653
O             0.82526843    3.03885168    1.29461053
N            -0.00744273    2.25986845   -1.07314430
C            -0.05105142    2.05813214    1.37212966
C            -0.50041788    1.43498832    0.02811531
C            -0.09913000    1.96619891   -2.35493109
O            -0.46129607    1.61385909    2.42221994
O             0.50694331    2.64108631   -3.24443864
H            -1.60477087    1.42662441    0.03268941
H             1.05668723    3.70070839   -2.62480919
O            -0.92784670    0.86659648   -2.70204632
C            -2.92832546    2.11861402   -2.23593931
C            -2.14527462    1.27546979   -3.22044547
C            -1.99086930    2.01006350   -4.53513960
C            -2.95558342    0.02291582   -3.48568445
H            -3.37106922    1.40162392   -1.49099552
H            -3.72150790    2.67455905   -2.77281966
H            -2.21803186    2.78968476   -1.69768413
H            -2.82372912    2.76164143   -4.58207274
H            -2.15530760    1.32712675   -5.39299990
H            -1.05330128    2.58448108   -4.59592882
H            -3.97662456    0.25554840   -3.86884481
H            -2.97021975   -0.55500121   -2.54321152
H            -2.37272990   -0.57780166   -4.21477856
C             0.00000000    0.00000000    0.00000000
C             1.52402575    0.00000000   -0.00000000
O            -0.44009844   -0.73153497    1.07480255
C            -1.17851333   -1.84679575    0.74713284
H             1.93554164   -0.68928159    0.76662520
H             1.90281931   -0.35802231   -0.97593973
H             1.92905190    1.00216239    0.23763534
H            -0.35819518   -0.50059135   -0.92510446
H            -0.57887913   -2.52666859    0.13312802
H            -2.14533853   -1.56148001    0.28278347
H            -1.38525970   -2.38925433    1.70684473



