%chk=cyc_sp_37.chk
%mem=300GB
%nprocshared=96
#p opt=(calcfc,ts,noeigen,maxstep=5) freq b3lyp def2svp em=gd3bj  

Freeze index  [38, 37]  [38, 1]  [30, 11]  [30, 1]  [30, 32]  [30, 31] // Local index  30  38  34  11  (34,)  [37, 38]  [1, 38]

0 1
C            -0.79250567    5.90409310    2.33629017
C             1.81415495    5.80802559    2.57634294
C             0.49872747    6.52016811    2.46608572
C            -1.75307077    6.92576159    2.09480634
C            -1.07616926    8.18469046    2.10870019
C             0.30713173    7.93884028    2.35651329
H            -2.81723464    6.77197212    1.92754897
H            -1.53309320    9.16000844    1.95186298
H             1.09357869    8.69071172    2.40737490
H             2.58936587    6.50252661    2.94746155
N             2.31706888    5.19118842    1.30268871
H             1.73100882    4.97834929    3.29121641
C            -0.79231114    6.35730472   -1.23696086
C            -0.45690159    7.74172725   -1.26830271
C             0.88276749    7.88290585   -0.79343933
C             1.37780327    6.57498001   -0.49121004
C             0.35742158    5.59720798   -0.79538491
H            -1.73483258    5.91643372   -1.55296361
H            -1.11304704    8.55356951   -1.57764253
H             1.41538819    8.82090438   -0.64364583
Fe           -0.24480193    6.97185172    0.64607291
H            -0.98576199    4.83424607    2.37484437
C             2.62668894    6.19269688    0.23488417
H             3.13521252    7.07023006    0.67125848
H             3.33373955    5.70346887   -0.45226371
C             3.51598210    4.38620096    1.62110554
H             3.88629618    3.90586349    0.70685386
H             4.31098986    5.02652950    2.04470681
H             3.23877626    3.60366711    2.33683626
Pd            0.82682724    3.89246602    0.48668701
O             1.12906217    2.55381703    1.94806318
N            -0.37621660    2.46483125   -0.20430256
C             0.33622240    1.50163359    1.93733446
C            -0.49284546    1.28344230    0.64828945
C            -0.85164466    2.57990491   -1.42837527
O             0.27592432    0.70463719    2.84813176
O            -0.55977405    3.56692991   -2.17307916
H            -1.54218396    1.14300335    0.96271485
H             0.13483423    4.43570037   -1.41696297
C            -1.78906254    1.48257500   -1.90535271
C            -3.02003446    1.28663461   -1.32495803
C            -3.87509812    0.27751004   -1.76791831
C            -3.51406174   -0.55769277   -2.80328932
C            -2.27820228   -0.35448517   -3.37967729
C            -1.42364105    0.65022904   -2.94069297
H            -3.34726574    1.91684775   -0.50930785
H            -4.85198022    0.13377048   -1.29607629
H            -4.18063721   -1.33925741   -3.14367872
H            -1.98646785   -1.00983636   -4.19732131
H            -0.44444118    0.79196900   -3.41613572
C             0.00000000    0.00000000    0.00000000
C             1.48759672    0.00000000    0.00000000
C             2.15557986    0.54422909   -1.07757643
C             3.54168771    0.57238179   -1.13324953
C             4.30343159    0.05537112   -0.10947798
C             3.61994723   -0.48746277    0.96533964
C             2.24279853   -0.51834672    1.02640098
H            -0.39496422   -0.84296230    0.59904256
H            -0.42641617   -0.11605739   -1.01448551
H             1.57307352    0.96088848   -1.90258084
H             4.04407998    1.00495896   -1.98985834
H             5.38986548    0.05916592   -0.11683451
H             4.20185842   -0.89975464    1.78184311
H             1.71470925   -0.95345935    1.88771186



