%chk=cyc_rp_1.chk
%mem=300GB
%nprocshared=68
#p opt=(readfc,ts,noeigen,nofreeze,maxcyc=300) freq b3lyp guess=tcheck chkbas em=gd3bj  

Freeze index  [38, 37]  [38, 1]  [30, 11]  [30, 1]  [30, 32]  [30, 31] // Local index  30  38  34  11  (34,)  [37, 38]  [1, 38]

0 1
C             2.16404338   -3.96474136    2.76760826
C             2.66069333   -6.13061022    1.49530353
C             2.92835144   -5.18399904    2.62187031
C             2.86159626   -3.18198641    3.76475239
C             3.96541026   -3.93259357    4.26206956
C             4.01951531   -5.16859013    3.54609748
H             2.53921433   -2.20372604    4.11528789
H             4.66188712   -3.61353124    5.03553541
H             4.78242811   -5.93829873    3.65311736
H             3.50363208   -6.82403048    1.32930968
N             2.36220736   -5.37066105    0.24002210
H             1.76665092   -6.73555828    1.71055909
C             5.11520296   -1.99133099    1.33342375
C             6.04956472   -3.02402138    1.65522196
C             5.64929523   -4.20971417    0.97007512
C             4.44379816   -3.92479471    0.24451798
C             4.14183005   -2.53510002    0.44993890
H             5.14036990   -0.96685743    1.69943407
H             6.91223329   -2.92660446    2.31179281
H             6.14242973   -5.17940990    1.02416688
H             3.28774126   -2.00692785    0.03180147
Fe            4.14538234   -3.62138680    2.21766153
C             3.59452168   -4.91967077   -0.49055957
H             4.19196362   -5.81556116   -0.73847530
H             3.23576037   -4.48162954   -1.43180304
C             1.54692245   -6.18792345   -0.68385909
H             1.25924340   -5.57147559   -1.54369373
H             2.11316754   -7.07505721   -1.02105394
H             0.63312728   -6.51386099   -0.17166992
Pd            1.22723975   -3.66075769    0.83631772
O             0.57088198   -3.32192039   -1.03657395
N             0.01519845   -2.14648303    1.24241767
C            -0.10711524   -2.20583293   -1.20845882
C            -0.49570194   -1.43482142    0.07724686
C            -0.52828092   -2.09691257    2.44202570
O            -0.41978281   -1.77375878   -2.29729008
O            -0.14520560   -2.85342839    3.38899246
H             0.90183776   -3.55515281    2.91497068
H            -1.59894525   -1.42223233    0.10893865
O            -1.56778968   -1.14596887    2.61957893
C            -3.01249060   -2.78705741    3.62276714
C            -2.34927114   -1.42965421    3.72721359
C            -1.57011552   -1.32357400    5.02087450
C            -3.45184036   -0.39111078    3.76769975
H            -3.87912243   -2.65969048    2.91725193
H            -3.35889406   -3.10837446    4.62436858
H            -2.28941953   -3.50257507    3.16477054
H            -2.01872067   -2.07201467    5.72749524
H            -1.72338028   -0.33374051    5.49639293
H            -0.51137726   -1.60388290    4.90605069
H            -4.16238083   -0.56432853    4.60946930
H            -3.94413500   -0.40745545    2.77782474
H            -2.94936476    0.59493890    3.85361683
C             0.00000000    0.00000000    0.00000000
C             1.49808971   -0.00000000    0.00000000
C             2.07440308    1.36170797   -0.07335417
O             3.32511614    1.46451741   -0.07890431
O             1.35416113    2.53465894   -0.13651859
C             1.88841234    3.81937252   -0.20573140
C             0.71661136    4.80036787   -0.25855433
C             2.70820941    4.09123726   -1.42501523
C             2.70740543    4.18847475    1.01213421
H            -0.34066009    0.55101095    0.92141828
H            -0.37482339    0.51630417   -0.90924740
H             1.85324922   -0.54543085    0.90899936
H             1.86264889   -0.59255429   -0.89022062
H             1.12413368    5.79233625   -0.57531417
H            -0.02042207    4.49796477   -1.02004946
H             0.21454106    4.91357233    0.69975509
H             2.18523345    3.70660893   -2.30442687
H             3.76090341    3.75956547   -1.34913466
H             2.75924948    5.21037511   -1.54891625
H             2.36041997    5.13030103    1.48785963
H             3.77089698    4.36478623    0.73827991
H             2.69407950    3.36888096    1.78343706



