%chk=cyc_rp_13.chk
%mem=300GB
%nprocshared=68
#p opt=(readfc,ts,noeigen,nofreeze,maxcyc=300) freq b3lyp guess=tcheck chkbas em=gd3bj  

Freeze index  [38, 37]  [38, 1]  [30, 11]  [30, 1]  [30, 32]  [30, 31] // Local index  30  38  34  11  (34,)  [37, 38]  [1, 38]

0 1
C             1.80509780   -3.48958774    3.55335231
C             0.11937158   -5.18174459    4.47603359
C             1.52090675   -4.77899011    4.14383740
C             3.18374022   -3.55308846    3.11873241
C             3.73866887   -4.80791868    3.50161116
C             2.70737397   -5.57710915    4.12451383
H             3.71544325   -2.73506826    2.63713772
H             4.76247182   -5.13584172    3.33007634
H             2.79780898   -6.60331886    4.47757990
H             0.02407983   -6.27347910    4.61007312
N            -0.82171884   -4.70795464    3.41197533
H            -0.20367183   -4.69990352    5.41149129
C             2.22968879   -5.18799312    0.14810368
C             2.47669098   -6.46527762    0.74019290
C             1.33476534   -6.81817105    1.51928297
C             0.38603775   -5.74377228    1.43916623
C             0.93833168   -4.75324908    0.55685731
H             2.90917808   -4.64017306   -0.50176592
H             3.37894934   -7.06277323    0.62314069
H             1.21852258   -7.72348203    2.11368772
H             0.46176237   -3.81347390    0.28671533
Fe            2.11607254   -5.07398395    2.23463278
C            -0.88735287   -5.62422722    2.22375098
H            -1.20728846   -6.62083159    2.57792553
H            -1.68406566   -5.22111809    1.58400039
C            -2.18812211   -4.55209583    3.95494301
H            -2.82830297   -4.10800045    3.18356076
H            -2.59387813   -5.52954186    4.27322195
H            -2.16243534   -3.87226155    4.81561727
Pd           -0.10145422   -2.79402388    2.79102656
O            -1.84938067   -2.31164178    1.91615507
N             0.35907816   -0.93915990    2.26721494
C            -1.84921807   -1.19023954    1.22526228
C            -0.59199543   -0.29721339    1.36806638
C             1.24137797   -0.29242861    3.00217901
O            -2.76151287   -0.84895658    0.50328810
O             1.94246484   -0.87733698    3.88658183
H             1.64413159   -2.18781700    3.80259978
H            -0.93587119    0.65217304    1.81385054
O             1.36788749    1.09899591    2.74854411
C             1.19284940    1.62726182    5.08884659
C             1.97456419    1.76667357    3.79935099
C             3.40925030    1.32912547    4.00458855
C             1.98951157    3.23810633    3.43805789
H             0.32325771    2.33588883    5.00709805
H             1.84205322    1.89153037    5.94625080
H             0.79343748    0.58757472    5.15271379
H             3.61922074    1.42415448    5.10349928
H             4.11199089    2.02569376    3.50426217
H             3.57359491    0.27051437    3.74960288
H             2.42531588    3.86630983    4.24977403
H             0.94930150    3.51744741    3.18824740
H             2.57321684    3.32309822    2.49772712
C             0.00000000    0.00000000    0.00000000
C             1.51874074    0.00000000    0.00000000
C             1.44364285   -1.49806317   -0.29528583
C             0.06570483   -1.27305021   -0.83772872
H            -0.47262411    0.83760018   -0.53772044
H             1.87209233    0.24304771    1.02455856
H             1.98880163    0.58772838   -0.80083757
H             1.52717403   -2.05519924    0.64697829
H             2.21866352   -1.80125522   -1.02966356
H            -0.71967099   -1.96358743   -0.51270605
H             0.06038532   -1.02036333   -1.90020489



