%chk=cyc_sp_26.chk
%mem=300GB
%nprocshared=96
#p opt=(calcfc,ts,noeigen,maxstep=5) freq b3lyp def2svp em=gd3bj  

Freeze index  [38, 37]  [38, 1]  [30, 11]  [30, 1]  [30, 32]  [30, 31] // Local index  30  38  34  11  (34,)  [37, 38]  [1, 38]

0 1
C            -4.46923790   -4.56474099    0.36562860
C            -5.78862695   -2.71464834    1.66864610
C            -5.68076002   -3.97752365    0.86667689
C            -4.81723847   -5.65624700   -0.47837159
C            -6.24129452   -5.78006398   -0.48065130
C            -6.77396903   -4.75970757    0.36226768
H            -4.11830008   -6.28470674   -1.02662682
H            -6.81970873   -6.51852537   -1.03269617
H            -7.82953793   -4.57274512    0.55517467
H            -6.78035635   -2.65852293    2.15273318
N            -5.57912433   -1.44476282    0.89463432
H            -5.02457072   -2.70672698    2.45760418
C            -4.95678092   -3.10558142   -2.89116699
C            -6.30338625   -3.52044173   -3.10250966
C            -7.13131434   -2.82795809   -2.16702865
C            -6.28938362   -1.96741420   -1.39393991
C            -4.92499763   -2.09689020   -1.85379056
H            -4.08644743   -3.43448262   -3.45411252
H            -6.64124357   -4.25378607   -3.83282622
H            -8.20347247   -2.96500375   -2.03414370
Fe           -5.71337616   -3.88879247   -1.14834778
H            -3.46379537   -4.20242808    0.56863116
C            -6.62050256   -1.20415235   -0.15262676
H            -7.62026479   -1.46414106    0.23718258
H            -6.61111223   -0.12234296   -0.35521675
C            -5.53980518   -0.32006406    1.85394938
H            -5.36284080    0.61667195    1.31089023
H            -6.49508806   -0.24761205    2.40502121
H            -4.71059096   -0.47822615    2.55314574
Pd           -3.70630879   -1.52216648   -0.13489272
O            -2.69995946   -1.33343624    1.58866947
N            -1.87637993   -1.38428604   -0.90644911
C            -1.38713898   -1.39729505    1.49822093
C            -0.79427882   -1.29396857    0.07187824
C            -1.75287369   -1.21431909   -2.20778811
O            -0.65707645   -1.48068646    2.46176823
O            -2.76288540   -1.13162690   -2.97398643
H            -0.10026695   -2.14457583   -0.04854284
H            -3.84624299   -1.40091843   -2.22380219
O            -0.43095379   -1.14783210   -2.72207707
C            -0.09584239   -3.50776139   -2.39780404
C            -0.05456730   -2.32642638   -3.34440699
C            -0.88300177   -2.61284455   -4.57872889
C             1.38436906   -2.15277846   -3.78616717
H             0.82700716   -3.43105512   -1.75944447
H            -0.09934701   -4.44958813   -2.98038784
H            -0.98895332   -3.40406370   -1.73737143
H            -0.95167712   -3.73012334   -4.66647519
H            -0.36029536   -2.27220176   -5.49530260
H            -1.91780027   -2.24601395   -4.49321836
H             1.79174032   -3.07394406   -4.26466207
H             1.95815572   -1.84067128   -2.89408224
H             1.39479187   -1.29057239   -4.48520220
C             0.00000000    0.00000000    0.00000000
C             1.37497188   -0.00000000   -0.00000000
C             2.09731474    1.19144357   -0.06614380
C             1.45605877    2.40968961   -0.13376127
C             0.07737235    2.40081554   -0.13325791
C            -0.64556793    1.21529535   -0.06745638
H             1.92241517   -0.93120739    0.05175681
H             3.19153753    1.17547776   -0.06534894
H             2.02051947    3.33153504   -0.18496325
H            -0.43555540    3.35853743   -0.18637978
H            -1.74311373    1.23461751   -0.06857279



