%chk=cyc_rp_39.chk
%mem=300GB
%nprocshared=68
#p opt=(readfc,ts,noeigen,nofreeze,maxcyc=300) freq b3lyp guess=tcheck chkbas em=gd3bj  

Freeze index  [38, 37]  [38, 1]  [30, 11]  [30, 1]  [30, 32]  [30, 31] // Local index  30  38  34  11  (34,)  [37, 38]  [1, 38]

0 1
C            -4.87503568    1.48878513   -1.44203303
C            -5.13748017    2.48238643   -3.78730226
C            -5.69637053    1.76453292   -2.60020740
C            -5.63653742    0.56131386   -0.63364336
C            -6.90628402    0.34288674   -1.24124026
C            -6.94242365    1.07533067   -2.46820835
H            -5.30211579    0.15776538    0.31982892
H            -7.70296210   -0.28947383   -0.85322693
H            -7.75465999    1.07072473   -3.19359888
H            -5.75918704    2.33742849   -4.68807921
N            -3.73365173    2.03276536   -4.05084486
H            -5.08362443    3.56355537   -3.58784741
C            -4.53297382   -2.14469353   -2.60022257
C            -5.70615019   -2.06705931   -3.41303593
C            -5.50342146   -1.04027126   -4.38263205
C            -4.21327422   -0.45378750   -4.15373830
C            -3.60629753   -1.17149019   -3.06694670
H            -4.37341450   -2.82734456   -1.76795374
H            -6.60031495   -2.67890962   -3.30872402
H            -6.22058667   -0.71978259   -5.13720374
H            -2.62205070   -0.96996633   -2.64991109
Fe           -5.37018291   -0.22861975   -2.51506030
C            -3.65490193    0.75772107   -4.84065553
H            -4.17418803    0.91893364   -5.80261766
H            -2.58777005    0.60802304   -5.05360887
C            -2.97851919    3.07653012   -4.77644375
H            -1.93174142    2.76213700   -4.86302363
H            -3.41219231    3.24409611   -5.77903510
H            -3.01161785    4.01286819   -4.20568099
Pd           -2.83550718    1.73501239   -2.13455444
O            -0.97175020    1.76282899   -2.89545891
N            -1.84159154    1.60596087   -0.42503215
C            -0.00776373    1.46082651   -2.05023680
C            -0.41243211    1.35184029   -0.55930992
C            -2.41193342    2.09514388    0.65769431
O             1.14055550    1.26573504   -2.38684467
O            -3.63314198    2.44737234    0.67753681
H            -4.14056380    2.12750815   -0.52812633
H             0.15200909    2.13714416   -0.02732062
O            -1.58412889    2.20488920    1.80621212
C            -2.26257920    4.48207607    2.18150402
C            -2.10492733    3.08381391    2.74125517
C            -3.41784208    2.59696233    3.31669018
C            -1.10576832    3.16311247    3.87759292
H            -1.23374557    4.93650815    2.17730619
H            -2.95153290    5.06335867    2.82485368
H            -2.61669737    4.40561421    1.12636797
H            -4.02065024    3.51266519    3.55924635
H            -3.25921801    2.07823201    4.28371420
H            -4.01312871    2.01862337    2.59292076
H            -1.42176894    3.88545546    4.66614370
H            -0.12809357    3.41656102    3.42771556
H            -1.00952514    2.13367444    4.28151373
C             0.00000000    0.00000000    0.00000000
C             1.52363892   -0.00000000    0.00000000
C             2.05911356    1.10206582    0.84636888
C             2.31908879    2.35308884    0.32477080
C             2.81459660    3.34335968    1.14634511
C             3.04988887    3.07509732    2.49826112
F             3.53609810    4.05715981    3.29085100
C             2.79764873    1.83223286    3.04219028
C             2.30247250    0.86234640    2.19548927
H            -0.41423584   -0.16417958    1.00749784
H            -0.31507417   -0.82527654   -0.65066842
H             1.81118005    0.24357336   -1.06553984
H             1.94391943   -0.97855472    0.24639812
H             2.14252855    2.57661347   -0.71883925
H             3.01083920    4.31540267    0.71643656
H             2.99542022    1.67659609    4.08758983
H             2.11057256   -0.10646984    2.63952663



