%chk=cyc_sp_36.chk
%mem=300GB
%nprocshared=96
#p opt=(calcfc,ts,noeigen,maxstep=5) freq b3lyp def2svp em=gd3bj  

Freeze index  [38, 37]  [38, 1]  [30, 11]  [30, 1]  [30, 32]  [30, 31] // Local index  30  38  34  11  (34,)  [37, 38]  [1, 38]

0 1
C            -1.54108336    5.95205549   -1.77277453
C            -0.89917957    6.50815740    0.70516717
C            -1.13240637    6.85715770   -0.73478004
C            -1.48566635    6.64278866   -3.01561109
C            -1.07895960    7.98879134   -2.75843825
C            -0.87978200    8.12828654   -1.35264627
H            -1.71269369    6.21700405   -3.99091944
H            -0.93928119    8.76977245   -3.50355584
H            -0.54747056    9.02875105   -0.83774188
H            -0.87689319    7.42767597    1.31754490
N             0.36006917    5.73772469    0.98142955
H            -1.71737725    5.87462629    1.07325738
C             1.84745556    5.53455447   -2.92040654
C             2.20002367    6.91113412   -3.02454550
C             2.23232397    7.46016801   -1.70634911
C             1.91992075    6.40798163   -0.78854883
C             1.70968665    5.18115352   -1.52371563
H             1.75604276    4.82985979   -3.74357916
H             2.38932228    7.45645126   -3.94763759
H             2.41535033    8.50245420   -1.44924247
Fe            0.37614746    6.68484396   -2.06287447
H            -1.80460944    4.90659711   -1.62797763
C             1.60868201    6.50134764    0.67003952
H             1.50815333    7.54887282    1.00418762
H             2.41130971    6.03650025    1.26261705
C             0.34651974    5.32389546    2.40105642
H             1.24786014    4.73747425    2.61877102
H             0.31849363    6.20912957    3.06216909
H            -0.53080665    4.69117151    2.57838608
Pd            0.41807285    3.98015829   -0.23551383
O            -1.04094068    3.12963133    0.84472137
N             0.43724798    2.19537614   -1.11706638
C            -1.45829632    1.95348216    0.42253196
C            -0.57362952    1.25453871   -0.63834301
C             1.43150464    1.90675231   -1.93301719
O            -2.44584355    1.40236937    0.85772616
O             2.37176164    2.72915130   -2.16453006
H            -1.24111983    0.95874401   -1.46698563
H             2.03563409    3.88620435   -1.56686419
O             1.39427756    0.63445064   -2.56249990
C            -0.39237190    1.31522060   -4.02234745
C             0.99320896    0.71964484   -3.88534975
C             1.98206628    1.48825780   -4.73581134
C             0.92997614   -0.69671515   -4.41992387
H            -1.11428895    0.49683534   -3.75009863
H            -0.54907917    1.65316819   -5.06527028
H            -0.50063653    2.14018732   -3.27919184
H             1.38575515    1.99755869   -5.53939907
H             2.67020191    0.79869343   -5.26528013
H             2.49414346    2.28788372   -4.17808380
H             0.57263708   -0.73248433   -5.47561517
H             0.28790722   -1.27222393   -3.72782943
H             1.95374075   -1.11414297   -4.32083820
C             0.00000000    0.00000000    0.00000000
C             1.46348582    0.00000000   -0.00000000
C             2.13028896    1.19517470    0.12237697
C             3.50650428    1.27750748    0.13081466
C             4.21703620    0.11391706    0.01168133
C             3.56096277   -1.09224362   -0.11181711
C             2.18626601   -1.15691405   -0.11844939
C            -0.58995572   -0.13831202    1.35194592
C            -0.83983982    1.02801782    2.05035990
C            -1.38713001    0.93645542    3.30842142
C            -1.69554179   -0.26678961    3.89915703
C            -1.44250152   -1.42592346    3.19416068
C            -0.89477731   -1.33332280    1.93521518
H            -0.33087764   -0.86079501   -0.65147698
H             1.56683881    2.14150309    0.21926774
H             4.04892199    2.19598266    0.22486618
H             5.32006445    0.10018181    0.01027398
H             4.11527078   -2.03573185   -0.20841086
H             1.70949143   -2.13975580   -0.21909219
H            -0.60361896    2.00421201    1.60347819
H            -1.57375455    1.86767964    3.83619683
H            -2.12787727   -0.28730976    4.89835875
H            -1.68461391   -2.37387043    3.65755305
H            -0.69015866   -2.24603635    1.36775717



