%chk=cyc_sp_27.chk
%mem=300GB
%nprocshared=96
#p opt=(calcfc,ts,noeigen,maxstep=5) freq b3lyp def2svp em=gd3bj  

Freeze index  [38, 37]  [38, 1]  [30, 11]  [30, 1]  [30, 32]  [30, 31] // Local index  30  38  34  11  (34,)  [37, 38]  [1, 38]

0 1
C            -2.99643196   -3.68655176    4.28664946
C            -2.63548606   -1.60973275    5.84164969
C            -3.31363919   -2.88436166    5.43535746
C            -3.97656651   -4.71184493    4.17291171
C            -4.88754536   -4.57933484    5.26645186
C            -4.46998065   -3.46675423    6.05587306
H            -4.02265202   -5.46381713    3.38775297
H            -5.75199858   -5.21143332    5.46090986
H            -4.96701815   -3.09116560    6.94933860
H            -2.88135886   -1.36955591    6.89183025
N            -2.97063091   -0.41036757    5.00212844
H            -1.54594006   -1.72565852    5.76581929
C            -5.66348655   -2.21661011    2.36320106
C            -6.71630990   -2.38763751    3.30788797
C            -6.44668663   -1.54338111    4.42800299
C            -5.23365282   -0.83467439    4.15720222
C            -4.74193202   -1.21318250    2.85155370
H            -5.58251703   -2.70473170    1.39482856
H            -7.56608663   -3.06055027    3.20604648
H            -7.03333775   -1.48455438    5.34361364
Fe           -4.87714887   -2.82381363    4.16215955
H            -2.17018234   -3.50641812    3.60235508
C            -4.40847048   -0.00458107    5.08622640
H            -4.76415110   -0.07548212    6.12907553
H            -4.44861771    1.05473650    4.79012349
C            -2.09266187    0.70457892    5.41787279
H            -2.30427987    1.58574096    4.79942693
H            -2.26233451    0.95539051    6.48079310
H            -1.04810969    0.41217348    5.26008553
Pd           -2.59226226   -0.83766833    2.94115621
O            -0.61193666   -0.80388709    3.25130789
N            -2.02031888   -1.04134559    1.04528009
C             0.13850486   -1.10266067    2.21047728
C            -0.57628995   -1.12995757    0.83754747
C            -2.92758150   -0.91722877    0.09707374
O             1.33183484   -1.29952496    2.28515547
O            -4.14524808   -0.66785963    0.35998942
H            -0.31853850   -2.09268017    0.36171577
H            -4.27694434   -0.72715638    1.69718723
O            -2.48460614   -1.09624602   -1.24012914
C            -2.26376125   -3.47252661   -0.93807455
C            -2.84676174   -2.33301814   -1.74736068
C            -4.34817871   -2.48677361   -1.86566502
C            -2.26335221   -2.42634038   -3.14262689
H            -1.18323329   -3.55157968   -1.24014745
H            -2.81042683   -4.40787371   -1.16771845
H            -2.30688093   -3.20031307    0.14294907
H            -4.57258541   -3.57508925   -1.70461130
H            -4.69038949   -2.25983175   -2.89559513
H            -4.89657087   -1.93967893   -1.08295297
H            -2.46904509   -3.41306706   -3.61961291
H            -1.18325351   -2.20736054   -3.05378898
H            -2.70754169   -1.59127436   -3.72359022
C             0.00000000    0.00000000    0.00000000
C             1.46451437    0.00000000    0.00000000
C             2.14253934   -0.89907858   -0.81329526
C             1.46660644   -1.80105391   -1.59730196
C             2.18166564   -2.69340990   -2.39264174
C             3.57174768   -2.69768253   -2.41738843
C             4.23273768   -1.78185888   -1.62072279
C             3.53797372   -0.89305526   -0.82812644
C             4.19506273    0.01228594   -0.02747415
C             3.53681592    0.91346218    0.78950124
C             4.26837634    1.79649901    1.59243806
C             3.64013458    2.68863851    2.42711422
C             2.26638515    2.68817056    2.44976151
C             1.55543192    1.80393215    1.64396648
C             2.16499786    0.90610883    0.80288052
H            -0.39675972    0.93283690    0.39199842
H            -0.41095239   -0.20097506   -1.03251841
H             0.39239270   -1.86576401   -1.62704304
H             1.69866817   -3.42304297   -3.02274433
H             4.11089691   -3.40089532   -3.04360931
H             5.31110887   -1.78981534   -1.64499850
H             5.27349377    0.04516448   -0.01608352
H             5.34583970    1.79056692    1.56960922
H             4.16806647    3.38649075    3.06267462
H             1.74637427    3.38991508    3.10801858
H             0.49942429    1.85467993    1.71698487



