%chk=cyc_rp_32.chk
%mem=300GB
%nprocshared=68
#p opt=(readfc,ts,noeigen,nofreeze,maxcyc=300) freq b3lyp guess=tcheck chkbas em=gd3bj  

Freeze index  [38, 37]  [38, 1]  [30, 11]  [30, 1]  [30, 32]  [30, 31] // Local index  30  38  34  11  (34,)  [37, 38]  [1, 38]

0 1
C            -3.69916075   -1.55529306    3.45822519
C            -3.07111815   -3.46137911    5.04845115
C            -3.87739029   -2.24627319    4.71631349
C            -4.41357393   -0.30436624    3.59373558
C            -5.06621181   -0.27194583    4.85949654
C            -4.72480258   -1.46733884    5.56498091
H            -4.48538542    0.45089024    2.81383827
H            -5.69633015    0.53197352    5.23607601
H            -5.01928284   -1.71673843    6.58332374
H            -3.07972505   -3.67969470    6.13066723
N            -1.66312288   -3.29651860    4.56604271
H            -3.47599038   -4.34149987    4.52590254
C            -1.67514109    1.14139531    5.27257090
C            -2.24402241    0.81040294    6.54136096
C            -1.93255110   -0.55337149    6.82175722
C            -1.19500967   -1.08405264    5.71034015
C            -1.01142188   -0.01248291    4.77082925
H            -1.73772605    2.10651825    4.77380685
H            -2.81895978    1.47820751    7.18030228
H            -2.24102512   -1.11371303    7.70339173
H            -0.48924158   -0.09031188    3.81975492
Fe           -3.01202115   -0.45855960    5.09256677
C            -0.79637684   -2.51708373    5.51313595
H            -0.79110283   -3.04432882    6.48422217
H             0.21806328   -2.56867285    5.09506484
C            -1.03241858   -4.61381401    4.33565924
H            -0.04370355   -4.46065588    3.88726320
H            -0.94004167   -5.17204914    5.28496844
H            -1.64439772   -5.19240351    3.63257588
Pd           -1.79111795   -2.25551764    2.70393343
O             0.07962983   -2.77646067    2.17267380
N            -1.79407332   -1.46498807    0.88679339
C             0.53631651   -2.21324085    1.07307165
C            -0.49284546   -1.41917498    0.23118334
C            -2.94818308   -1.37174269    0.25732780
O             1.69211638   -2.28618822    0.71420130
O            -4.05677240   -1.57352424    0.84564976
H            -3.76574571   -1.78103250    2.14397805
H            -0.55489372   -1.93096283   -0.74480379
O            -2.88459833   -1.02938935   -1.11931665
C            -1.83765518    2.98102986   -1.80545168
C            -2.48364114    1.82444199   -1.07238542
C            -3.34006346    2.41315581    0.02140911
C            -3.30653127    1.05874695   -2.08068047
C            -4.34925362    1.99451169   -2.64915080
C            -5.00052724    1.22559147   -3.80783994
C            -5.74501454    0.07821645   -3.14875236
C            -6.69627698   -0.61010341   -4.06807549
C            -4.76304245   -0.87365678   -2.50451427
C            -3.92869552   -0.16383344   -1.49443805
H            -2.58712712    3.81325424   -1.80258159
H            -0.90221621    3.27935711   -1.28830910
H            -1.67338738    2.67161308   -2.84525560
H            -1.71894200    1.16536619   -0.59729648
H            -4.06451557    1.71123318    0.44649660
H            -2.63777798    2.72815371    0.84153085
H            -3.84100701    3.36368107   -0.30195012
H            -2.66216188    0.75101501   -2.92681733
H            -3.90410953    2.89584243   -3.06133042
H            -5.14974278    2.18372740   -1.90360568
H            -4.18529714    0.85845823   -4.46805117
H            -5.72611089    1.85653727   -4.34461750
H            -6.34306839    0.54483850   -2.31868569
H            -6.30022015   -0.70656116   -5.09600967
H            -7.64497676   -0.02110158   -4.08659512
H            -6.92299224   -1.61343804   -3.63182505
H            -4.15937634   -1.39983854   -3.27136718
H            -5.36971480   -1.66393255   -1.99517201
H            -4.53278505    0.02266985   -0.59787797
C             0.00000000    0.00000000    0.00000000
C             1.48759672    0.00000000    0.00000000
C             2.15557986    0.19416093    1.19149394
C             3.54168771    0.20416394    1.25307322
C             4.30343159    0.01966191    0.12109830
C             3.61994723   -0.17400344   -1.06734408
C             2.24279853   -0.18496930   -1.13488707
H            -0.39496422    0.32898386   -0.98041167
H            -0.42641617    0.69086620    0.75190030
H             1.57307352    0.34281948    2.10370990
H             4.04407998    0.35855263    2.20020879
H             5.38986548    0.02092324    0.12927926
H             4.20185842   -0.32119020   -1.97011678
H             1.71470925   -0.34007531   -2.08731635



