%chk=cyc_rp_38.chk
%mem=300GB
%nprocshared=68
#p opt=(readfc,ts,noeigen,nofreeze,maxcyc=300) freq b3lyp guess=tcheck chkbas em=gd3bj  

Freeze index  [38, 37]  [38, 1]  [30, 11]  [30, 1]  [30, 32]  [30, 31] // Local index  30  38  34  11  (34,)  [37, 38]  [1, 38]

0 1
C            -4.86637572    1.51701965   -1.44185714
C            -5.12070793    2.52484646   -3.78194446
C            -5.68458504    1.80266067   -2.59984608
C            -5.63308076    0.58818535   -0.63997688
C            -6.90267858    0.37842911   -1.25093066
C            -6.93369715    1.11789149   -2.47382236
H            -5.30195780    0.17791095    0.31177471
H            -7.70262281   -0.25279661   -0.86782033
H            -7.74470510    1.12071881   -3.20059510
H            -5.74146824    2.38752103   -4.68456826
N            -3.71829988    2.07090532   -4.04564352
H            -5.06272903    3.60464671   -3.57632635
C            -4.53734227   -2.11128574   -2.61986966
C            -5.70879770   -2.02423570   -3.43420982
C            -5.50017457   -0.99286955   -4.39767727
C            -4.20800951   -0.41302448   -4.16331735
C            -3.60585922   -1.13932180   -3.07955490
H            -4.38202531   -2.79925189   -1.79118261
H            -6.60565825   -2.63295582   -3.33484505
H            -6.21472008   -0.66518522   -5.15164350
H            -2.62150255   -0.94421719   -2.65973525
Fe           -5.36677646   -0.19227148   -2.52535183
C            -3.64346655    0.79999913   -4.84247336
H            -4.16043830    0.96875629   -5.80438807
H            -2.57659965    0.64708333   -5.05446594
C            -2.95762521    3.11559196   -4.76409161
H            -1.91200820    2.79736001   -4.85067275
H            -3.38888920    3.29057609   -5.76645487
H            -2.98783225    4.04884069   -4.18813243
Pd           -2.82466770    1.75868663   -2.12954580
O            -0.95951450    1.78305958   -2.88713999
N            -1.83421552    1.61592945   -0.41910320
C             0.00177127    1.47233063   -2.04200506
C            -0.40589029    1.35665368   -0.55239828
C            -2.40438151    2.10138402    0.66539257
O             1.14984852    1.27438050   -2.37776833
O            -3.62415732    2.45854691    0.68515615
H            -4.13083507    2.14755774   -0.52313893
H             0.16087915    2.13661640   -0.01505369
O            -1.57809426    2.20125416    1.81590240
C            -2.24777579    4.47908723    2.20284180
C            -2.09685564    3.07706482    2.75499107
C            -3.41275074    2.59242922    3.32546760
C            -1.09932053    3.14584810    3.89343871
H            -1.21706877    4.92927365    2.20293168
H            -2.93542146    5.05959617    2.84828602
H            -2.60040350    4.41001509    1.14669744
H            -4.01218607    3.50924331    3.57214977
H            -3.25792236    2.06762731    4.28982714
H            -4.00918303    2.02063046    2.59745730
H            -1.41368244    3.86505545    4.68550280
H            -0.11984039    3.39776912    3.44664103
H            -1.00801925    2.11376965    4.29172955
C             0.00000000    0.00000000    0.00000000
C             1.46892625    0.00000000    0.00000000
C             2.11494881   -0.68827771   -1.03329529
C             3.47230972   -0.73494320   -1.13125306
C             4.24597194   -0.08263911   -0.17896528
C             3.64233787    0.59959664    0.84676935
C             2.27131951    0.62319305    0.90886698
C             1.62615229    1.36610537    2.02824738
H            -0.44231291   -0.14228789    1.00881376
H            -0.36217529   -0.73355935   -0.74567919
H             1.53973728   -1.20171099   -1.78931629
H             3.93679580   -1.26767074   -1.92466217
H             5.32652304   -0.14809182   -0.29292375
H             4.27376437    1.10324520    1.57897998
H             0.76593079    0.74040022    2.39079890
H             1.31081449    2.37878705    1.75290776
H             2.33376364    1.41016816    2.88309614



