%chk=cyc_sp_31.chk
%mem=300GB
%nprocshared=96
#p opt=(calcfc,ts,noeigen,maxstep=5) freq b3lyp def2svp em=gd3bj  

Freeze index  [38, 37]  [38, 1]  [30, 11]  [30, 1]  [30, 32]  [30, 31] // Local index  30  38  34  11  (34,)  [37, 38]  [1, 38]

0 1
C            -0.68208888    6.29909095   -0.89486421
C             1.71867883    6.37852323    0.14988372
C             0.58615724    6.93255985   -0.66256413
C            -1.40172737    7.07491711   -1.84619487
C            -0.60589883    8.21290266   -2.18517876
C             0.61013083    8.13746808   -1.44291929
H            -2.38619446    6.83929616   -2.24541975
H            -0.87589406    8.99699899   -2.89011570
H             1.43708532    8.84465312   -1.49224198
H             2.43765058    7.18186923    0.39223119
N             2.47968531    5.25554936   -0.49463653
H             1.33562881    5.96917331    1.09434922
C             0.38060154    5.05763535   -4.10469490
C             0.87975114    6.27911484   -4.64224308
C             2.03817123    6.65076832   -3.89385617
C             2.26235622    5.63910944   -2.90727514
C             1.25621839    4.60999617   -3.04284267
H            -0.48172868    4.50130700   -4.46449180
H             0.44293338    6.84379914   -5.46421679
H             2.61875356    7.56339983   -4.02033927
Fe            0.44716309    6.48078383   -2.62364300
H            -1.00912410    5.36313971   -0.44715809
C             3.19889944    5.65978600   -1.74300124
H             3.66836307    6.65007035   -1.60874113
H             4.00471322    4.92413823   -1.88760887
C             3.43124794    4.71243261    0.49850927
H             3.98172462    3.87319207    0.05539429
H             4.14757317    5.49224289    0.81516194
H             2.86912621    4.34127284    1.36323574
Pd            1.13096270    3.69631140   -1.06302997
O             0.84139058    3.18658436    0.85407735
N             0.00434942    2.08613303   -1.38083029
C            -0.04006982    2.23116227    1.06843862
C            -0.49284546    1.42723361   -0.17466414
C            -0.08901725    1.61528134   -2.60851629
O            -0.45253843    1.94141853    2.17039762
O             0.52050724    2.15493646   -3.58384474
H            -1.59722935    1.42536164   -0.16965986
H             1.07588606    3.28839677   -3.11934731
O            -0.92354610    0.48208866   -2.79777884
C            -3.45316960    2.69942785   -2.90299032
C            -3.64359295    1.22692982   -2.61462717
C            -5.14931113    0.98253022   -2.54282746
C            -3.11671276    0.35637019   -3.72272457
C            -3.80988632    0.63548441   -5.04052735
C            -3.50506860   -0.55878885   -5.92365172
C            -2.02169427   -0.63446905   -6.14380102
C            -1.76454770   -1.96323752   -6.84299237
C            -1.21916832   -0.62019282   -4.88148977
C            -1.64164955    0.54327080   -3.97402540
H            -4.39289343    3.14272543   -3.32941913
H            -3.30458112    3.23180445   -1.93476780
H            -2.60510330    2.84156632   -3.59094421
H            -3.21797639    0.99916483   -1.64212539
H            -5.36248719   -0.07628686   -2.69231581
H            -5.45987660    1.30875205   -1.52818455
H            -5.64781620    1.61734397   -3.29537580
H            -3.25513982   -0.70070425   -3.40952445
H            -3.31457594    1.51298979   -5.51278445
H            -4.89011496    0.72023350   -4.96438982
H            -4.01660815   -0.47110517   -6.87724914
H            -3.81020657   -1.47136562   -5.35786446
H            -1.71116397    0.18948848   -6.80648407
H            -1.76727183   -1.76892687   -7.92650586
H            -0.84583158   -2.44624489   -6.47006074
H            -2.59929354   -2.68887118   -6.65703257
H            -0.16159421   -0.53569158   -5.13301535
H            -1.46683881   -1.56153909   -4.31630793
H            -1.39451194    1.47578955   -4.50003498
C             0.00000000    0.00000000    0.00000000
C             1.48759672    0.00000000    0.00000000
C             2.15557986   -0.14670917   -1.19826236
C             3.54168771   -0.15425978   -1.26019020
C             4.30343159   -0.01483917   -0.12178337
C             3.61994723    0.13149594    1.07341017
C             2.24279853    0.13977190    1.14133524
H            -0.39496422   -0.36764393    0.96657921
H            -0.42641617   -0.66047346   -0.77873293
H             1.57307352   -0.25903831   -2.11566057
H             4.04407998   -0.27092836   -2.21270797
H             5.38986548   -0.01577475   -0.13000794
H             4.20185842    0.24272933    1.98131415
H             1.71470925    0.25694709    2.09917102



