%chk=cyc_sp_7.chk
%mem=300GB
%nprocshared=96
#p opt=(calcfc,ts,noeigen,maxstep=5) freq b3lyp def2svp em=gd3bj  

Freeze index  [38, 37]  [38, 1]  [30, 11]  [30, 1]  [30, 32]  [30, 31] // Local index  30  38  34  11  (34,)  [37, 38]  [1, 38]

0 1
C            -3.19911092   -5.53431168    0.28585945
C            -4.91626101   -4.09709771    1.64501229
C            -4.51108862   -5.27593224    0.81084899
C            -3.27852891   -6.65880700   -0.58248907
C            -4.62788142   -7.13049234   -0.57681454
C            -5.38427337   -6.29245469    0.29550756
H            -2.45370208   -7.08270971   -1.15172321
H            -5.01368496   -7.97642246   -1.14267639
H            -6.45058747   -6.37640771    0.50122554
H            -5.88443745   -4.29853794    2.13803742
N            -5.03724341   -2.79783988    0.90144844
H            -4.16704863   -3.91831420    2.42796617
C            -4.07625578   -4.16838476   -2.92948236
C            -5.28160420   -4.89821156   -3.14069021
C            -6.24191032   -4.45280698   -2.18175844
C            -5.62786239   -3.42845378   -1.39391647
C            -4.28015737   -3.20655524   -1.86744370
H            -3.15947597   -4.25942173   -3.50722894
H            -5.43802038   -5.67577377   -3.88650168
H            -7.24516486   -4.85339888   -2.04402884
Fe           -4.59221141   -5.15298489   -1.20100700
H            -2.31148804   -4.93948212    0.49006226
C            -6.12004627   -2.79859161   -0.13134156
H            -7.01928980   -3.30614391    0.25958259
H            -6.38068725   -1.74374097   -0.30683760
C            -5.26354070   -1.72002146    1.88829984
H            -5.33067319   -0.75670297    1.36751705
H            -6.19951209   -1.89813929    2.44841271
H            -4.41143709   -1.68402836    2.57685699
Pd           -3.21754161   -2.38716222   -0.14420185
O            -2.26536049   -1.99425919    1.57568274
N            -1.48898633   -1.78428969   -0.92624485
C            -0.97875010   -1.72979050    1.47347447
C            -0.44933347   -1.45135087    0.04560809
C            -1.42909399   -1.56003249   -2.22383775
O            -0.23754988   -1.65176672    2.42893422
O            -2.43868045   -1.71230209   -2.97986069
H             0.43140475   -2.10124014   -0.10146515
H            -3.41169017   -2.25757356   -2.22826965
O            -0.17164250   -1.15756850   -2.74654643
C             0.73988771   -3.36821374   -2.48409789
C             0.47538300   -2.19243857   -3.40110563
C            -0.27358951   -2.64696296   -4.63574621
C             1.82077028   -1.65887700   -3.84953468
H             1.62392826   -3.08020108   -1.85120050
H             0.96092451   -4.26844958   -3.09004502
H            -0.14205207   -3.50314860   -1.81436184
H            -0.06562128   -3.74432935   -4.75091482
H             0.13627414   -2.16734963   -5.54753001
H            -1.36563664   -2.54913700   -4.53304366
H             2.43626415   -2.43992445   -4.35410079
H             2.31196441   -1.23472200   -2.95439312
H             1.60851697   -0.80541370   -4.52681369
C             0.00000000    0.00000000    0.00000000
O             1.40608525    0.00000000    0.00000000
C             1.77145705   -0.74962845    1.14133729
C             3.26019439   -0.85001631    1.29424539
H            -0.30832914    0.48047726    0.95509552
H            -0.40927913    0.55413546   -0.86245090
H             1.30003872   -0.18838771    1.99869128
H             1.36760744   -1.78203457    1.08961614
H             3.80003832   -0.86838842    0.34155566
H             3.52362531   -1.74686474    1.88518727
H             3.59024377    0.04894243    1.87447846



