%chk=cyc_rp_27.chk
%mem=300GB
%nprocshared=68
#p opt=(readfc,ts,noeigen,nofreeze,maxcyc=300) freq b3lyp guess=tcheck chkbas em=gd3bj  

Freeze index  [38, 37]  [38, 1]  [30, 11]  [30, 1]  [30, 32]  [30, 31] // Local index  30  38  34  11  (34,)  [37, 38]  [1, 38]

0 1
C            -5.06270627    0.79494611   -1.34126031
C            -5.53002689    1.43544617   -3.77596348
C            -5.95811175    0.83113303   -2.47657313
C            -5.68651760   -0.08665571   -0.37833799
C            -6.95147731   -0.50839060   -0.87949408
C            -7.11782455    0.04634010   -2.18633505
H            -5.27032583   -0.32421334    0.59846771
H            -7.65957340   -1.15862834   -0.36868979
H            -7.95586586   -0.13519673   -2.85765588
H            -6.17164680    1.11084279   -4.61375098
N            -4.09949865    1.09519516   -4.05909999
H            -5.58156688    2.53356906   -3.72047742
C            -4.39107447   -2.90916651   -2.04057213
C            -5.60016492   -3.05686020   -2.78845065
C            -5.54895707   -2.15393359   -3.89190458
C            -4.31892581   -1.41785466   -3.81414639
C            -3.59310333   -1.92052616   -2.68050760
H            -4.12452494   -3.45538342   -1.13794184
H            -6.41961823   -3.73439623   -2.55561253
H            -6.32801128   -2.00941989   -4.63930520
H            -2.61830281   -1.56906462   -2.34958293
Fe           -5.42068306   -1.09082135   -2.15475374
C            -3.92151429   -0.25994315   -4.68172517
H            -4.49624748   -0.28071031   -5.62526593
H            -2.85484058   -0.33085598   -4.93412891
C            -3.49064470    2.10191307   -4.95463319
H            -2.42136901    1.88347541   -5.05959652
H            -3.98275794    2.09041838   -5.94409395
H            -3.59717990    3.09827116   -4.50796166
Pd           -3.09247453    1.14619949   -2.17474588
O            -1.27687360    1.25561265   -3.03785739
N            -2.01704588    1.34536722   -0.52224036
C            -0.25060193    1.16576846   -2.21714408
C            -0.57628995    1.21767494   -0.70395854
C            -2.58801576    1.91625535    0.51937695
O             0.89612472    1.04156729   -2.59076776
O            -3.83747263    2.14589323    0.56334204
H            -4.36042113    1.61932730   -0.56034244
H            -0.07496998    2.11880234   -0.31031356
O            -1.72715217    2.25955650    1.59522812
C            -2.62439217    4.48842261    1.71285101
C            -2.29632406    3.19992021    2.43772715
C            -3.52445019    2.66734389    3.14480826
C            -1.26254731    3.52845677    3.49566847
H            -1.65022987    5.03737791    1.59168722
H            -3.34201249    5.07972011    2.31437722
H            -3.01408555    4.23710580    0.69818993
H            -4.20910467    3.54334298    3.30164172
H            -3.27020770    2.30068956    4.15984696
H            -4.08653166    1.94163696    2.53645132
H            -1.61815754    4.31501738    4.20158057
H            -0.33746645    3.81461265    2.96198884
H            -1.04106639    2.57677945    4.02236944
C             0.00000000    0.00000000    0.00000000
C             1.46451437    0.00000000    0.00000000
C             2.14253934    0.80101464    0.91003683
C             1.46660644    1.60822982    1.79130276
C             2.18166564    2.40460213    2.68273740
C             3.57174768    2.40603992    2.70780904
C             4.23273768    1.58650184    1.81239492
C             3.53797372    0.79334775    0.92408898
C             4.19506273   -0.01532330    0.02590308
C             3.53681592   -0.81800458   -0.88802807
C             4.26837634   -1.60425608   -1.78595355
C             3.64013458   -2.39595099   -2.71644608
C             2.26638515   -2.39291694   -2.73889411
C             1.55543192   -1.60579586   -1.83799257
C             2.16499786   -0.80918095   -0.90048682
H            -0.39675972   -0.88234697   -0.49528906
H            -0.41095239    0.08254881    1.04865196
H             0.39239270    1.66914838    1.82819257
H             1.69866817    3.05804644    3.39154219
H             4.11089691    3.03367483    3.40976005
H             5.31110887    1.59165310    1.83741651
H             5.27349377   -0.04669745    0.01085624
H             5.34583970   -1.60095199   -1.76259914
H             4.16806647   -3.01720048   -3.42706823
H             1.74637427   -3.01545888   -3.47250795
H             0.49942429   -1.64793284   -1.91629644



