%chk=cyc_sp_11.chk
%mem=300GB
%nprocshared=96
#p opt=(calcfc,ts,noeigen,maxstep=5) freq b3lyp def2svp em=gd3bj  

Freeze index  [38, 37]  [38, 1]  [30, 11]  [30, 1]  [30, 32]  [30, 31] // Local index  30  38  34  11  (34,)  [37, 38]  [1, 38]

0 1
C            -0.91472104    6.33306966    0.01208639
C             1.48619392    6.35065986    1.05936040
C             0.33066060    6.97297690    0.33333823
C            -1.66633753    7.20968716   -0.81944262
C            -0.91393984    8.41275688   -0.99204743
C             0.30732260    8.27688834   -0.26717536
H            -2.64334673    6.99747990   -1.24895562
H            -1.21541149    9.27891407   -1.57816033
H             1.10778187    9.01369469   -0.21449584
H             2.17654478    7.13704952    1.41435975
N             2.28466320    5.35967107    0.26187506
H             1.12249399    5.79710277    1.93548620
C             0.17811618    5.60161590   -3.34115750
C             0.63012027    6.90470194   -3.69862056
C             1.77756440    7.20806582   -2.90397250
C             2.04278993    6.07500730   -2.07157649
C             1.07414681    5.03956805   -2.35330663
H            -0.66500082    5.07104330   -3.77728877
H             0.16939346    7.56439694   -4.43199432
H             2.32400259    8.15005250   -2.89855216
Fe            0.19946067    6.80058224   -1.67223604
H            -1.20550393    5.33151308    0.32148110
C             2.98313368    5.96381255   -0.91552455
H             3.41686033    6.94136427   -0.64103631
H             3.81452373    5.28629912   -1.16292820
C             3.25976273    4.71575873    1.16815124
H             3.83841812    3.96898650    0.61030433
H             3.94865351    5.46818269    1.59333651
H             2.71536003    4.20478749    1.97066049
Pd            0.99102362    3.84903329   -0.52414367
O             0.72872369    3.06096053    1.30045622
N            -0.07768166    2.26041058   -1.06920955
C            -0.11644263    2.05309552    1.37567941
C            -0.54521077    1.41853033    0.03028062
C            -0.15932211    1.96626889   -2.35156724
O            -0.51319190    1.59432014    2.42471896
O             0.42582524    2.66140550   -3.23949134
H            -1.64876028    1.37551519    0.03410054
H             0.94167241    3.73665944   -2.61764839
O            -0.95291781    0.84182166   -2.70115294
C            -2.99197931    2.02963755   -2.23420482
C            -2.18225569    1.21321199   -3.21965404
C            -2.05016577    1.95460454   -4.53296244
C            -2.95270411   -0.06367804   -3.48761783
H            -3.41246774    1.29779805   -1.49080821
H            -3.80188359    2.56136957   -2.77064669
H            -2.30342092    2.72171245   -1.69430553
H            -2.90616696    2.67976442   -4.57914362
H            -2.19256895    1.26835818   -5.39212140
H            -1.13104420    2.55826030   -4.59212271
H            -3.98030559    0.13748153   -3.87105596
H            -2.94978071   -0.64343014   -2.54616338
H            -2.35084224   -0.64452763   -4.21736709
C             0.00000000    0.00000000    0.00000000
C             1.48601705    0.00000000    0.00000000
C             2.20816977   -0.02524618    1.18302197
C             3.58549994   -0.02396485    1.12320265
F             4.34229793   -0.04822015    2.25992806
C             4.27117610    0.00167829   -0.07813214
F             5.61297501    0.00324883   -0.15061722
C             3.54248313    0.02685009   -1.25787657
F             4.18350675    0.05224633   -2.44824240
C             2.16792325    0.02561875   -1.20042457
H            -0.30932505   -0.53423932   -0.92821794
H            -0.41217488   -0.52398387    0.90235673
H             1.72410500   -0.04559791    2.13676002
H             1.58166723    0.04478856   -2.09884780



