%chk=cyc_rp_15.chk
%mem=300GB
%nprocshared=68
#p opt=(readfc,ts,noeigen,nofreeze,maxcyc=300) freq b3lyp guess=tcheck chkbas em=gd3bj  

Freeze index  [38, 37]  [38, 1]  [30, 11]  [30, 1]  [30, 32]  [30, 31] // Local index  30  38  34  11  (34,)  [37, 38]  [1, 38]

0 1
C             2.35347336   -3.87950820    2.73358602
C             2.94736488   -6.01055273    1.44426430
C             3.17342607   -5.06070116    2.57720059
C             3.01627493   -3.07233977    3.73496254
C             4.15512808   -3.77424404    4.22433430
C             4.26500139   -5.00113591    3.49914808
H             2.64951617   -2.11275299    4.09340337
H             4.83791153   -3.42867589    4.99862082
H             5.06323600   -5.73518295    3.59883237
H             3.82129621   -6.66267992    1.27133219
N             2.61062350   -5.25624844    0.19527337
H             2.08304150   -6.65808813    1.65698938
C             5.20581090   -1.76023507    1.30760267
C             6.18810727   -2.75053556    1.61974716
C             5.84183368   -3.94859532    0.92674160
C             4.62254666   -3.71494323    0.20592171
C             4.25663343   -2.34237398    0.42224315
H             5.18410629   -0.73838978    1.68110518
H             7.04694130   -2.61776520    2.27514668
H             6.37977511   -4.89460407    0.97260900
H             3.37780222   -1.85158532    0.00986639
Fe            4.31526343   -3.44013190    2.18189225
C             3.81873421   -4.74297725   -0.53463181
H             4.45667035   -5.60820319   -0.79044470
H             3.43757937   -4.31531565   -1.47183810
C             1.83201098   -6.10390923   -0.73284165
H             1.51374758   -5.49531633   -1.58747953
H             2.43815196   -6.96119441   -1.07779877
H             0.93569372   -6.47582442   -0.22109065
Pd            1.39867158   -3.60551845    0.80662639
O             0.72253146   -3.28405866   -1.06228709
N             0.11837318   -2.15241143    1.22651331
C            -0.00719179   -2.19958703   -1.22446333
C            -0.42807355   -1.45690255    0.06773471
C            -0.42381356   -2.13696213    2.42763001
O            -0.34239540   -1.77466345   -2.30939701
O            -0.00350901   -2.88165096    3.36815730
H             1.07391836   -3.53031511    2.88670253
H            -1.53062111   -1.49601190    0.10191065
O            -1.50607773   -1.23685038    2.61444716
C            -2.87017468   -2.95078007    3.60863196
C            -2.27070089   -1.56471714    3.72165084
C            -1.49409353   -1.43181838    5.01436658
C            -3.42038482   -0.57904817    3.77218793
H            -3.74357032   -2.85884627    2.90595636
H            -3.19870599   -3.29517439    4.60858455
H            -2.11568302   -3.62844827    3.14380263
H            -1.90554222   -2.20548293    5.71641789
H            -1.69214541   -0.45369231    5.49750533
H            -0.42372957   -1.66160191    4.89518261
H            -4.11996187   -0.79132958    4.61419546
H            -3.91386516   -0.61114041    2.78328907
H            -2.96421293    0.42871291    3.86428705
C             0.00000000    0.00000000    0.00000000
C             1.52413683   -0.00000000    0.00000000
C             2.08435652    1.36044004   -0.06324903
C             2.35128687    2.06373432    1.09099943
C             2.88261247    3.35344256    1.01865160
C             3.14036704    3.92409310   -0.19934094
C             2.86914021    3.21088385   -1.34194234
C             2.34490078    1.93724498   -1.29493548
H            -0.39341277    0.48353130   -0.91145120
H            -0.42293022    0.52647372    0.86509875
H             1.82493681   -0.50961539    0.95940940
H             1.83675930   -0.64790907   -0.82472617
H             2.15844356    1.63958725    2.06244111
H             3.07195732    3.85810053    1.96166281
H             3.55616090    4.93490395   -0.22299191
H             3.06333119    3.63829146   -2.31377287
H             2.15642714    1.43497410   -2.23239915



