%chk=cyc_rp_24.chk
%mem=300GB
%nprocshared=68
#p opt=(readfc,ts,noeigen,nofreeze,maxcyc=300) freq b3lyp guess=tcheck chkbas em=gd3bj  

Freeze index  [38, 37]  [38, 1]  [30, 11]  [30, 1]  [30, 32]  [30, 31] // Local index  30  38  34  11  (34,)  [37, 38]  [1, 38]

0 1
C            -4.98295082    1.11225185   -1.41244831
C            -5.35499559    1.91504734   -3.81526136
C            -5.84508898    1.25717088   -2.56471214
C            -5.67231547    0.20680747   -0.51884405
C            -6.94157124   -0.12421377   -1.07432182
C            -7.04715459    0.51300220   -2.34948410
H            -5.29377757   -0.10682468    0.45179622
H            -7.69233821   -0.76859427   -0.62017105
H            -7.87445965    0.41105107   -3.05027852
H            -5.98832238    1.67076581   -4.68598236
N            -3.93466181    1.52403638   -4.08379528
H            -5.35721581    3.00927964   -3.69584741
C            -4.46471261   -2.57264143   -2.31442796
C            -5.65893023   -2.61869123   -3.09849372
C            -5.53661512   -1.65649000   -4.14478101
C            -4.27640941   -0.98568711   -3.99398148
C            -3.60511737   -1.58758237   -2.87517725
H            -4.24788143   -3.18259993   -1.43974066
H            -6.51473338   -3.26878994   -2.92602632
H            -6.28792328   -1.43169699   -4.90070529
H            -2.62430748   -1.30288158   -2.50070454
Fe           -5.40580592   -0.70370507   -2.34493526
C            -3.80290408    0.20052539   -4.78143341
H            -4.35257934    0.26218856   -5.73802812
H            -2.73428507    0.09364949   -5.01199795
C            -3.25625317    2.55102950   -4.90306973
H            -2.19578843    2.28833457   -4.99520396
H            -3.72177147    2.62067381   -5.90296100
H            -3.32853843    3.52362087   -4.40064014
Pd           -2.97704033    1.41710481   -2.17617473
O            -1.13592106    1.48990364   -2.98754370
N            -1.93807550    1.46815987   -0.48948137
C            -0.13718007    1.30356507   -2.14928942
C            -0.50041788    1.28270885   -0.64392542
C            -2.50967733    2.00397953    0.57026158
O             1.01215351    1.14679586   -2.50207595
O            -3.74792012    2.28998867    0.59787525
H            -4.26443904    1.85531273   -0.56731943
H             0.03130298    2.13444136   -0.18552242
O            -1.66291326    2.24258270    1.68491698
C            -2.45905304    4.50105948    1.91330920
C            -2.21033390    3.15834285    2.56795672
C            -3.48019649    2.64465540    3.21252576
C            -1.19110676    3.37502075    3.66800089
H            -1.45768353    5.00905930    1.84834702
H            -3.16440036    5.08986044    2.53156806
H            -2.83270305    4.32814603    0.87646553
H            -4.12759694    3.54168241    3.40471861
H            -3.27036188    2.20778875    4.20976954
H            -4.05875452    1.98325065    2.54882503
H            -1.52872724    4.13518647    4.41070448
H            -0.23987211    3.64733756    3.17457418
H            -1.02797069    2.38480048    4.14235083
C             0.00000000    0.00000000    0.00000000
C             1.52402575   -0.00000000   -0.00000000
O            -0.44009844   -0.14629542    1.29187522
C            -1.17851333   -1.28573784    1.52175564
H             1.93554164   -0.25254300    0.99952256
H             1.90281931   -0.77161319   -0.69659990
H             1.92905190    0.99741664   -0.25682688
H            -0.35819518   -0.87405845   -0.58517672
H            -0.57887913   -2.17342228    1.29538133
H            -2.14533853   -1.24972271    0.97794655
H            -1.38525970   -1.31838796    2.62368222



