%chk=cyc_rp_26.chk
%mem=300GB
%nprocshared=68
#p opt=(readfc,ts,noeigen,nofreeze,maxcyc=300) freq b3lyp guess=tcheck chkbas em=gd3bj  

Freeze index  [38, 37]  [38, 1]  [30, 11]  [30, 1]  [30, 32]  [30, 31] // Local index  30  38  34  11  (34,)  [37, 38]  [1, 38]

0 1
C            -5.23386658    0.71831122    0.39061867
C            -6.48519818    1.31941720   -1.76095035
C            -6.45310594    0.72843629   -0.38742279
C            -5.49292554   -0.15684034    1.51337418
C            -6.84568542   -0.59993783    1.46002511
C            -7.44080071   -0.06542178    0.27538961
H            -4.77521928   -0.37598510    2.30120150
H            -7.33648454   -1.25103046    2.18136056
H            -8.45002880   -0.26585928   -0.08129509
H            -7.36145312    0.97585734   -2.33807708
N            -5.22214316    0.99160498   -2.49551093
H            -6.53250776    2.41754710   -1.70194642
C            -4.77254181   -2.98728448   -0.45573620
C            -6.15784183   -3.15918824   -0.76302822
C            -6.48602055   -2.27121259   -1.83041158
C            -5.31022853   -1.52012566   -2.16837163
C            -4.24451200   -1.99861900   -1.33175570
H            -4.21578141   -3.51778129    0.31415600
H            -6.84473476   -3.84272264   -0.26731538
H            -7.46956054   -2.14604008   -2.28140859
H            -3.22062447   -1.63147023   -1.34309204
Fe           -5.81029534   -1.18258200   -0.24213144
C            -5.23787488   -0.36996440   -3.12924725
H            -6.09039300   -0.41044861   -3.83109665
H            -4.31245469   -0.43220768   -3.71767932
C            -4.95698346    1.99262135   -3.55088779
H            -3.97838149    1.78496315   -3.99955144
H            -5.74671611    1.96171098   -4.32335595
H            -4.92609587    2.99383064   -3.10342767
Pd           -3.65266044    1.08037757   -1.04763909
O            -2.22349624    1.19846440   -2.46075078
N            -2.09705769    1.31483706    0.15739945
C            -0.98324821    1.13179741   -2.02232610
C            -0.79427882    1.20108021   -0.48675197
C            -2.30267419    1.89364029    1.32341625
O            -0.02125325    1.01549786   -2.75105287
O            -3.47164525    2.10958910    1.77361813
H            -4.32669495    1.56146720    0.88938627
H            -0.20534344    2.11327457   -0.28834527
O            -1.14142784    2.26171803    2.05308961
C            -1.98430654    4.48161879    2.43820649
C            -1.41646629    3.20718043    3.02699920
C            -2.33564208    2.67053028    4.10357597
C            -0.09759329    3.56222034    3.68304124
H            -1.11263954    5.03991707    1.99829234
H            -2.47336203    5.07301622    3.23665452
H            -2.68191860    4.21174312    1.61052134
H            -2.94409447    3.54075767    4.46855933
H            -1.75631887    2.32099403    4.98197635
H            -3.05521872    1.93003978    3.72073453
H            -0.21348740    4.35443796    4.45919065
H             0.59618642    3.85144851    2.87218336
H             0.29928603    2.62057166    4.11656404
C             0.00000000    0.00000000    0.00000000
C             1.37497188    0.00000000    0.00000000
C             2.09731474   -1.10592776    0.44814795
C             1.45605877   -2.23673885    0.90636384
C             0.07737235   -2.22850518    0.90301582
C            -0.64556793   -1.12807132    0.45710859
H             1.92241517    0.86435053   -0.35032003
H             3.19153753   -1.09107828    0.44222916
H             2.02051947   -3.09241074    1.25312927
H            -0.43555540   -3.11750174    1.26320782
H            -1.74311373   -1.14599247    0.46441777



