%chk=cyc_rp_0.chk
%mem=300GB
%nprocshared=68
#p opt=(readfc,ts,noeigen,nofreeze,maxcyc=300) freq b3lyp guess=tcheck chkbas em=gd3bj  

Freeze index  [38, 37]  [38, 1]  [30, 11]  [30, 1]  [30, 32]  [30, 31] // Local index  30  38  34  11  (34,)  [37, 38]  [1, 38]

0 1
C            -0.14083554    1.07268507    5.18569430
C            -2.38127828    1.85531597    6.14710661
C            -1.04451445    1.20397191    6.30735550
C             0.90089636    0.16995724    5.62553389
C             0.67898961   -0.17257820    6.99029309
C            -0.53397869    0.45446082    7.41309428
H             1.74935749   -0.13420338    5.01610906
H             1.30865613   -0.81789661    7.60038688
H            -1.00745329    0.34246677    8.38737332
H            -3.06659618    1.60085450    6.97446390
N            -2.99092310    1.47056807    4.83460887
H            -2.27138898    2.95037920    6.12787630
C            -1.12165268   -2.61577595    4.87937812
C            -1.58526047   -2.67462592    6.23017045
C            -2.63481409   -1.71958053    6.37793644
C            -2.80470358   -1.04035719    5.12468920
C            -1.88352467   -1.62995894    4.19279166
H            -0.32438622   -3.21790677    4.44816161
H            -1.20245182   -3.32837889    7.01173105
H            -3.18241801   -1.50481570    7.29468252
H            -1.76527772   -1.33677144    3.15195971
Fe           -0.92899399   -0.75262013    5.81267519
C            -3.69176340    0.14266557    4.86979720
H            -4.48277119    0.19397906    5.63966231
H            -4.17916841    0.04028011    3.89077594
C            -3.95863429    2.49533131    4.38788847
H            -4.30899964    2.23812152    3.38132499
H            -4.81247723    2.55479088    5.08700001
H            -3.45960942    3.47121587    4.34079126
Pd           -1.37929830    1.38346991    3.43369173
O            -2.62176034    1.46089717    1.85140460
N            -0.00277683    1.45317202    2.00985209
C            -2.05589342    1.28663849    0.67483995
C            -0.50737150    1.27492859    0.65385874
C             1.16238383    1.99357018    2.30524495
O            -2.68141050    1.13391709   -0.35249016
O             1.49413168    2.27257764    3.50019565
H             0.49569591    1.82620717    4.28587563
H            -0.19988362    2.13314033    0.03157869
O             2.03120746    2.24541780    1.21066019
C             2.43653636    4.50087478    1.94233035
C             3.01697823    3.16455867    1.52922137
C             3.95892508    2.64833485    2.59605976
C             3.82906223    3.39537492    0.27100283
H             2.12265705    5.01418495    0.99205817
H             3.20678841    5.09017355    2.47701173
H             1.52554943    4.31804499    2.55977205
H             4.30025092    3.54299674    3.18240409
H             4.87565594    2.22016386    2.14257069
H             3.46303281    1.97863507    3.31597459
H             4.62781650    4.15909811    0.41988743
H             3.11385741    3.66951754   -0.52636885
H             4.25397473    2.40969389   -0.01191011
C             0.00000000    0.00000000    0.00000000
H             1.11123978    0.00000000    0.00000000
H            -0.34606400   -0.86436663    0.61945116
H            -0.40221157   -0.08493071   -1.03343313



