%chk=cyc_sp_28.chk
%mem=300GB
%nprocshared=96
#p opt=(calcfc,ts,noeigen,maxstep=5) freq b3lyp def2svp em=gd3bj  

Freeze index  [38, 37]  [38, 1]  [30, 11]  [30, 1]  [30, 32]  [30, 31] // Local index  30  38  34  11  (34,)  [37, 38]  [1, 38]

0 1
C            -1.80651048    5.77755225   -2.07391648
C            -0.05578638    5.28921347   -3.96018901
C            -1.25154287    5.98632183   -3.38240102
C            -3.02472773    6.50730957   -1.98335067
C            -3.21896197    7.20307868   -3.21682264
C            -2.11856028    6.89922486   -4.07248430
H            -3.69122641    6.52875986   -1.12347349
H            -4.06090085    7.84707286   -3.46391981
H            -1.97991813    7.25778081   -5.09161762
H             0.31010699    5.83906516   -4.84607985
N            -0.28052475    3.85995767   -4.36307279
H             0.75446832    5.26117549   -3.21923186
C            -4.32641923    3.54697868   -3.35772685
C            -4.81321447    4.37231668   -4.41222038
C            -3.77868302    4.49768300   -5.38902983
C            -2.66040810    3.72607395   -4.94052570
C            -2.99266678    3.09051396   -3.68536107
H            -4.87830349    3.24364504   -2.47117291
H            -5.79320437    4.84450554   -4.45657690
H            -3.81676200    5.10848414   -6.28982286
Fe           -3.08342883    5.16716598   -3.58845867
H            -1.38189498    5.13488644   -1.30575839
C            -1.26615939    3.70086235   -5.47766874
H            -1.10485501    4.47994400   -6.24322219
H            -1.05308551    2.72598377   -5.94205092
C             1.02471771    3.27500532   -4.73849595
H             0.88701099    2.22186839   -5.01351687
H             1.46225405    3.82138914   -5.59378520
H             1.69745957    3.32328838   -3.87445108
Pd           -1.06748796    2.75449822   -2.71019422
O             0.69768982    2.82803418   -1.76271386
N            -1.54112062    1.58611406   -1.16957196
C             0.72556809    2.29894739   -0.55646170
C            -0.49284546    1.42857364   -0.16334229
C            -2.66774109    0.90360465   -1.21991257
O             1.65990214    2.42639375    0.20458087
O            -3.44881574    0.96792198   -2.21981069
H            -0.84663903    1.79701933    0.81582666
H            -2.96665416    1.92539484   -3.03204168
C            -3.00447685    0.04682830   -0.01038986
H            -3.98063893   -0.45837703   -0.17388147
H            -2.21737910   -0.74233354    0.08080441
H            -3.02506794    0.67418577    0.90774742
C             0.00000000    0.00000000    0.00000000
C             1.48759672    0.00000000   -0.00000000
C             2.15557986   -0.13720368   -1.19938793
C             3.54168771   -0.14426304   -1.26137369
C             4.30343159   -0.01387310   -0.12189719
C             3.61994723    0.12298087    1.07441905
C             2.24279853    0.13071800    1.14240759
H            -0.39496422   -0.37529626    0.96363382
H            -0.42641617   -0.65427823   -0.78394526
H             1.57307352   -0.24225536   -2.11764795
H             4.04407998   -0.25337555   -2.21478657
H             5.38986548   -0.01474344   -0.13012893
H             4.20185842    0.22701210    1.98317644
H             1.71470925    0.24029494    2.10114234



