%chk=cyc_sp_16.chk
%mem=300GB
%nprocshared=96
#p opt=(calcfc,ts,noeigen,maxstep=5) freq b3lyp def2svp em=gd3bj  

Freeze index  [38, 37]  [38, 1]  [30, 11]  [30, 1]  [30, 32]  [30, 31] // Local index  30  38  34  11  (34,)  [37, 38]  [1, 38]

0 1
C            -0.60042757    6.36765238    0.19267066
C             2.00570562    6.28045054    0.44156925
C             0.70865223    6.95201834    0.10055150
C            -1.53620553    7.27493905   -0.37827294
C            -0.82535544    8.44272323   -0.79569803
C             0.55404553    8.25417325   -0.48411563
H            -2.60632186    7.10557251   -0.47939829
H            -1.25781937    9.32003793   -1.27312408
H             1.36117134    8.95457216   -0.69478854
H             2.80443225    7.03605828    0.55161599
N             2.47429480    5.25276571   -0.54832111
H             1.90991873    5.74589090    1.39622646
C            -0.63679832    5.57972895   -3.32178751
C            -0.26450181    6.86040435   -3.82317216
C             1.08485484    7.11412063   -3.42948711
C             1.54840323    5.97240525   -2.70239829
C             0.49786163    4.98062589   -2.65227999
H            -1.59513730    5.08631213   -3.46562874
H            -0.90260747    7.53822064   -4.38769851
H             1.64466010    8.03073710   -3.60947409
Fe           -0.04718189    6.78068274   -1.76187176
H            -0.82202903    5.38087414    0.59336613
C             2.79628914    5.82213877   -1.89414864
H             3.33429172    6.77999369   -1.78397991
H             3.48038474    5.10750870   -2.37660020
C             3.65522594    4.56814152    0.02042317
H             3.99987500    3.79485407   -0.67739310
H             4.47298863    5.29005728    0.19817768
H             3.36674291    4.08402367    0.96057978
Pd            0.93843972    3.79954692   -0.86872650
O             1.22427570    3.02852798    0.95962037
N            -0.31213138    2.25896027   -1.02877208
C             0.40319136    2.05965958    1.31015002
C            -0.44902528    1.44156519    0.17511738
C            -0.80094938    1.96557978   -2.21730503
O             0.33378698    1.62169407    2.43786367
O            -0.49267503    2.63164378   -3.25429452
H            -1.49738323    1.44795655    0.52237978
H             0.23545927    3.68429298   -2.84112618
O            -1.71012329    0.87688461   -2.28462141
C            -3.45121699    2.15586074   -1.22654216
C            -3.02314657    1.30159375   -2.40140249
C            -3.27545844    2.03307267   -3.70261996
C            -3.89130684    0.05977631   -2.39586154
H            -3.64966214    1.44540769   -0.37747557
H            -4.36490566    2.72194783   -1.49332332
H            -2.60059276    2.81778781   -0.93868360
H            -4.07228717    2.79567282   -3.49230451
H            -3.70664299    1.35174969   -4.46370191
H            -2.39602776    2.59486992   -4.05428771
H            -4.97787028    0.30573879   -2.44420525
H            -3.61977255   -0.51718622   -1.49262241
H            -3.57119142   -0.54921987   -3.26695723
C             0.00000000    0.00000000    0.00000000
C             1.51578652    0.00000000    0.00000000
C            -0.55379262   -0.87271723    1.10349319
C            -0.12809130   -2.29849692    0.98819776
H             1.82669103    0.54606931    0.91237620
H             1.92779577   -1.02477267   -0.05068498
H             1.82986801    0.54672160   -0.92818668
H            -0.41414925   -0.35241996   -0.95494426
H            -1.65717723   -0.83903119    1.01672513
H            -0.31373495   -0.46843658    2.11325035
H            -0.63443610   -2.86735695    1.79568206
H            -0.51505792   -2.72107252    0.03287137
H             0.96351328   -2.44850377    1.04673523



