%chk=cyc_rp_2.chk
%mem=300GB
%nprocshared=68
#p opt=(readfc,ts,noeigen,nofreeze,maxcyc=300) freq b3lyp guess=tcheck chkbas em=gd3bj  

Freeze index  [38, 37]  [38, 1]  [30, 11]  [30, 1]  [30, 32]  [30, 31] // Local index  30  38  34  11  (34,)  [37, 38]  [1, 38]

0 1
C            -4.68082495    1.75989829    1.74772683
C            -6.20877280    2.88959407    0.03146017
C            -6.00663262    2.13114912    1.30455361
C            -4.87843389    0.82110110    2.83086683
C            -6.27335393    0.68732482    3.08668474
C            -6.97747398    1.48641495    2.13332184
H            -4.07372844    0.35306977    3.39406698
H            -6.72771696    0.06728699    3.85755278
H            -8.05928188    1.55400135    2.02813513
H            -7.24938214    2.81905238   -0.33059979
N            -5.26183519    2.39894779   -1.01969323
H            -5.97809154    3.95524531    0.18239906
C            -5.32184244   -1.81586058    0.53792453
C            -6.74063236   -1.64695126    0.57717010
C            -7.08174432   -0.57782104   -0.30380236
C            -5.86954961   -0.05701200   -0.86964452
C            -4.78704533   -0.85669715   -0.36633354
H            -4.74742287   -2.54871967    1.10104327
H            -7.43923891   -2.22714482    1.17725069
H            -8.08311978   -0.18811687   -0.48211449
H            -3.73544638   -0.71792431   -0.60748526
Fe           -5.82247561    0.12482129    1.14011280
C            -5.74574660    1.16671368   -1.72903745
H            -6.72006551    1.40085809   -2.19476027
H            -5.02094063    0.98607684   -2.53436701
C            -5.01310344    3.44951502   -2.02994310
H            -4.24094294    3.09849133   -2.72466126
H            -5.94194756    3.68877184   -2.57889205
H            -4.64325173    4.35392477   -1.53109707
Pd           -3.42924758    1.96133456   -0.01092827
O            -2.37367077    1.95565322   -1.72529835
N            -1.63031726    1.69945610    0.77790530
C            -1.11885607    1.56953189   -1.61934432
C            -0.57423603    1.39579793   -0.18000316
C            -1.42084835    2.15142551    1.99804173
O            -0.40436317    1.34708251   -2.57329335
O            -2.37040165    2.55084577    2.74277051
H            -3.50971778    2.31782374    2.06374688
H             0.24450064    2.12761765   -0.06856337
O            -0.07060204    2.16504912    2.43741269
C            -0.24917644    4.44382103    3.18709838
C             0.11702891    3.01192369    3.51706229
C            -0.63355459    2.54759371    4.74706925
C             1.59620706    2.98894736    3.84474286
H             0.60670631    4.85608858    2.58499792
H            -0.38799464    5.01639372    4.12482727
H            -1.16062148    4.43927671    2.54382125
H            -0.91730221    3.47220165    5.31742908
H             0.03003599    1.97097185    5.42274150
H            -1.57667431    2.03395635    4.50337652
H             1.85249495    3.67935306    4.68206275
H             2.13550377    3.22704040    2.90935819
H             1.84502625    1.93598898    4.09278539
C             0.00000000    0.00000000    0.00000000
C             1.51736118    0.00000000    0.00000000
C             2.10595578    0.82904478    1.08639862
C             1.94553717    0.44179246   -1.38796426
H            -0.38783080   -0.52207511    0.90964879
H            -0.32883906   -0.62504833   -0.85937411
H             1.87719460   -1.04053408    0.13107333
H             2.20457645    0.22183597    2.02010969
H             3.14433387    1.10856276    0.78244200
H             1.56719934    1.73553424    1.33056627
H             1.20243069    1.16914735   -1.80681744
H             2.94344499    0.90632676   -1.35305756
H             1.94804071   -0.47224029   -2.04998622



