%chk=cyc_sp_10.chk
%mem=300GB
%nprocshared=96
#p opt=(calcfc,ts,noeigen,maxstep=5) freq b3lyp def2svp em=gd3bj  

Freeze index  [38, 37]  [38, 1]  [30, 11]  [30, 1]  [30, 32]  [30, 31] // Local index  30  38  34  11  (34,)  [37, 38]  [1, 38]

0 1
C            -0.38697386    6.38706562   -0.01661545
C             2.00899543    6.21052320    1.02724700
C             0.90769894    6.92307802    0.29988492
C            -1.06486455    7.31909851   -0.85124411
C            -0.21570613    8.45489811   -1.03057819
C             0.99138498    8.22166440   -0.30675860
H            -2.05685176    7.18658159   -1.27839860
H            -0.44543211    9.34034615   -1.62036586
H             1.85021654    8.88986327   -0.25867133
H             2.76273878    6.93864667    1.37756788
N             2.72122385    5.15313724    0.23335754
H             1.60224281    5.69303420    1.90648358
C             0.63558923    5.55217600   -3.36786692
C             1.19334450    6.81168100   -3.73211539
C             2.36337699    7.02260146   -2.94049695
C             2.53530895    5.87530799   -2.10311626
C             1.48373039    4.92238424   -2.37860612
H            -0.24934865    5.09126937   -3.80031816
H             0.78754884    7.50389375   -4.46796534
H             2.98597274    7.91609878   -2.94028830
Fe            0.75912408    6.75291892   -1.70466811
H            -0.75917092    5.41447386    0.29791593
C             3.46525337    5.69191794   -0.94785083
H             3.97894677    6.63143257   -0.67859018
H             4.23722781    4.94673027   -1.19319396
C             3.64123683    4.43483792    1.14132278
H             4.15505976    3.64013833    0.58621689
H             4.39083577    5.12955667    1.56199146
H             3.05780001    3.97441856    1.94699176
Pd            1.30551287    3.75125566   -0.54371757
O             0.98206328    2.99602340    1.28495115
N             0.10792924    2.25413318   -1.07978441
C             0.05645219    2.06199237    1.36610929
C            -0.42578304    1.45894389    0.02432141
C            -0.00006230    1.96186873   -2.36062205
O            -0.37507944    1.64249163    2.41785469
O             0.63908285    2.60205026   -3.25263247
H            -1.52909477    1.50751199    0.02986878
H             1.24332149    3.63372558   -2.63659702
O            -0.88468794    0.90543085   -2.70378725
C            -2.81752423    2.26021444   -2.23964905
C            -2.07995310    1.37499279   -3.22234159
C            -1.88922842    2.09684466   -4.53932434
C            -2.95399387    0.16509571   -3.48319655
H            -3.29587229    1.56915136   -1.49221809
H            -3.58154811    2.85473709   -2.77748183
H            -2.07305253    2.89534751   -1.70398175
H            -2.68230184    2.89020254   -4.58775395
H            -2.08950432    1.42080801   -5.39502924
H            -0.92336941    2.62200754   -4.60260938
H            -3.96207794    0.44892347   -3.86616272
H            -2.99743791   -0.40856827   -2.53901448
H            -2.40360449   -0.46696660   -4.21101981
C             0.00000000    0.00000000    0.00000000
C             1.50235353    0.00000000    0.00000000
C            -0.62235739   -0.78590785    1.09207593
H             1.93119606    0.92116293    0.48946062
H             1.85684077    0.07954003   -1.06806989
H             1.95531516   -0.87426907    0.46666915
H            -0.34033338   -0.41870064   -0.98004117
H             0.06257798   -1.10084632    1.89778206
H            -1.48662717   -0.21703081    1.52048047
H            -1.07393222   -1.73642647    0.69604767



