%chk=cyc_rp_28.chk
%mem=300GB
%nprocshared=68
#p opt=(readfc,ts,noeigen,nofreeze,maxcyc=300) freq b3lyp guess=tcheck chkbas em=gd3bj  

Freeze index  [38, 37]  [38, 1]  [30, 11]  [30, 1]  [30, 32]  [30, 31] // Local index  30  38  34  11  (34,)  [37, 38]  [1, 38]

0 1
C            -4.99506419   -1.15870308   -1.32993286
C            -5.91889858   -3.40528326   -0.52006381
C            -6.11930257   -1.98955741   -0.95874409
C            -5.51648982    0.18789128   -1.42134433
C            -6.92185629    0.16314302   -1.19012420
C            -7.29780778   -1.18254532   -0.88845428
H            -4.92473868    1.05985712   -1.69212165
H            -7.59136896    1.02120954   -1.21485113
H            -8.29407235   -1.52234231   -0.60928910
H            -6.79623739   -3.79743937    0.02344531
N            -4.69226241   -3.51487165    0.33182779
H            -5.74815103   -4.05380872   -1.39291472
C            -5.22379906    0.59706207    2.06500455
C            -6.58537763    0.20456080    2.25224761
C            -6.63903435   -1.22106494    2.23821107
C            -5.31217591   -1.71893563    2.00930272
C            -4.43713702   -0.58142686    1.93849485
H            -4.85053443    1.61843265    2.02467948
H            -7.43436389    0.87404609    2.37797652
H            -7.53676428   -1.83027641    2.33495258
H            -3.36277986   -0.62170372    1.77292127
Fe           -5.88969799   -0.56508048    0.45704321
C            -4.93069026   -3.15007416    1.76912677
H            -5.71347100   -3.82105842    2.16671399
H            -3.99191185   -3.37931447    2.29131428
C            -4.14498631   -4.88761658    0.28518291
H            -3.19510768   -4.91005667    0.83227372
H            -4.85877109   -5.60602539    0.72762329
H            -3.94928347   -5.16620622   -0.75774282
Pd           -3.26103386   -2.17037927   -0.51165690
O            -1.72673212   -3.04024696    0.45919814
N            -1.79407437   -1.10344652   -1.30955756
C            -0.56560654   -2.42761540    0.35258686
C            -0.49284546   -1.27020440   -0.67385766
C            -1.97329533   -0.61960232   -2.52227315
O             0.40941430   -2.72250160    1.01012172
O            -3.10742592   -0.63780343   -3.09606391
H            -3.98025073   -1.13126875   -2.19712811
H             0.24989701   -1.57474722   -1.43142248
C            -0.74449150   -0.03366480   -3.19836821
H            -1.06073864    0.63351180   -4.02886051
H            -0.20092392    0.58715632   -2.44357332
H            -0.08596143   -0.85053404   -3.56718855
C             0.00000000    0.00000000    0.00000000
C             1.48759672    0.00000000   -0.00000000
C             2.15557986   -0.56569614    1.06646338
C             3.54168771   -0.59495793    1.12156162
C             4.30343159   -0.05755208    0.10834734
C             3.61994723    0.50669390   -0.95538572
C             2.24279853    0.53879428   -1.01581643
H            -0.39496422    0.85478785   -0.58204396
H            -0.42641617    0.09572123    1.01660593
H             1.57307352   -0.99879094    1.88295968
H             4.04407998   -1.04460013    1.96933727
H             5.38986548   -0.06149342    0.11562641
H             4.20185842    0.93525184   -1.76347023
H             1.71470925    0.99106558   -1.86824244



