%chk=cyc_sp_0.chk
%mem=300GB
%nprocshared=96
#p opt=(calcfc,ts,noeigen,maxstep=5) freq b3lyp def2svp em=gd3bj  

Freeze index  [38, 37]  [38, 1]  [30, 11]  [30, 1]  [30, 32]  [30, 31] // Local index  30  38  34  11  (34,)  [37, 38]  [1, 38]

0 1
C            -2.72536796   -4.05194486    4.13506280
C            -2.40087062   -2.05762580    5.80205944
C            -3.04028180   -3.33253822    5.33795216
C            -3.66767123   -5.10770808    3.98588283
C            -4.55114907   -5.07712658    5.10918294
C            -4.15463442   -3.99705747    5.95275188
H            -3.70707649   -5.81325458    3.15840976
H            -5.38432887   -5.75420536    5.28811732
H            -4.63991316   -3.69538944    6.88005696
H            -2.62547489   -1.89007034    6.87093532
N            -2.80662292   -0.82538873    5.04538796
H            -1.31028005   -2.12450652    5.69053059
C            -5.50214551   -2.58056815    2.37491524
C            -6.51977024   -2.84971678    3.33518586
C            -6.25101035   -2.06282026    4.49651493
C            -5.07485201   -1.29065913    4.23676876
C            -4.60667815   -1.57111556    2.89813766
H            -5.43022267   -3.00696152    1.37712777
H            -7.34526030   -3.54941193    3.21561736
H            -6.81281092   -2.08204810    5.42923857
Fe           -4.64109372   -3.26048960    4.11260663
H            -1.92688216   -3.79829556    3.44117677
C            -4.25615599   -0.48403249    5.19183789
H            -4.57852564   -0.63078342    6.23759691
H            -4.34609971    0.58841408    4.96116295
C            -1.96113411    0.29781252    5.50402321
H            -2.22471537    1.20462932    4.94553219
H            -2.10967441    0.47831915    6.58423059
H            -0.91097349    0.05791754    5.30129168
Pd           -2.47158770   -1.11451570    2.95313743
O            -0.48595043   -1.01867387    3.21214254
N            -1.94715220   -1.18247830    1.03394530
C             0.24518242   -1.22472646    2.13569301
C            -0.50737150   -1.19992370    0.78304360
C            -2.88557840   -1.03955149    0.11931209
O             1.44693779   -1.37700829    2.16672653
O            -4.10393490   -0.85582374    0.42894586
H            -0.22614650   -2.12159927    0.24349467
H            -4.19453235   -0.99928098    1.76317602
O            -2.47477977   -1.12114745   -1.23751232
C            -2.15284780   -3.50017911   -1.08491128
C            -2.80295730   -2.33950075   -1.80844188
C            -4.30003109   -2.54687847   -1.89592979
C            -2.25690752   -2.32648752   -3.22177263
H            -1.07923813   -3.51728866   -1.41973606
H            -2.66904701   -4.44177115   -1.35582930
H            -2.17529534   -3.29425264    0.01129216
H            -4.47710115   -3.65102282   -1.79474171
H            -4.68043975   -2.27360681   -2.90090676
H            -4.84648856   -2.06969209   -1.06746007
H            -2.43767882   -3.29086735   -3.75162925
H            -1.18404940   -2.06943166   -3.14859273
H            -2.74990679   -1.47731108   -3.73946852
C             0.00000000    0.00000000    0.00000000
H             1.11123978   -0.00000000    0.00000000
H            -0.34606400   -0.10942932   -1.05776871
H            -0.40221157    0.93959161    0.43859418



