%chk=cyc_sp_21.chk
%mem=300GB
%nprocshared=96
#p opt=(calcfc,ts,noeigen,maxstep=5) freq b3lyp def2svp em=gd3bj  

Freeze index  [38, 37]  [38, 1]  [30, 11]  [30, 1]  [30, 32]  [30, 31] // Local index  30  38  34  11  (34,)  [37, 38]  [1, 38]

0 1
C            -0.99072242    6.32161716    0.01604924
C             1.40953950    6.36734363    1.06396941
C             0.24680129    6.97622143    0.33805510
C            -1.75260023    7.18969864   -0.81509626
C            -1.01466223    8.40183311   -0.98670336
C             0.20795811    8.28015881   -0.26159880
H            -2.72688005    6.96605889   -1.24500834
H            -1.32636497    9.26469778   -1.57232074
H             0.99949658    9.02649061   -0.20821849
H             2.09030448    7.16173104    1.41967330
N             2.22005805    5.38654850    0.26603743
H             1.05228978    5.80887396    1.93963132
C             0.11168090    5.60557861   -3.33739050
C             0.54809310    6.91423760   -3.69386881
C             1.69160710    7.23083081   -2.89871618
C             1.97020884    6.10048450   -2.06700254
C             1.01414415    5.05367423   -2.34967615
H            -0.72489092    5.06520909   -3.77409682
H             0.07966421    7.56884052   -4.42692621
H             2.22669059    8.17930871   -2.89252597
Fe            0.11819559    6.80360130   -1.66766779
H            -1.26953430    5.31643422    0.32470204
C             2.91152386    5.99982063   -0.91077611
H             3.33340780    6.98232779   -0.63552425
H             3.75105473    5.33250664   -1.15840971
C             3.20258867    4.75378963    1.17214366
H             3.79031454    4.01439347    0.61395408
H             3.88228362    5.51414944    1.59801051
H             2.66415660    4.23578150    1.97416953
Pd            0.94485709    3.86100711   -0.52132605
O             0.69157355    3.06862391    1.30268080
N            -0.10455092    2.26002726   -1.06772907
C            -0.14144595    2.05063080    1.37701138
C            -0.56221666    1.41185926    0.03107827
C            -0.18232387    1.96578172   -2.35030330
O            -0.53292535    1.58642369    2.42564118
O             0.39465986    2.66848822   -3.23761095
H            -1.66517087    1.35559053    0.03457788
H             0.89739587    3.74944514   -2.61491790
O            -0.96226733    0.83211757   -2.70084527
C            -3.01556785    1.99504593   -2.23364774
C            -2.19584421    1.18906197   -3.21942468
C            -2.07233172    1.93286338   -4.53220558
C            -2.95083204   -0.09681039   -3.48843985
H            -3.42742666    1.25771323   -1.49084837
H            -3.83166260    2.51736998   -2.76995056
H            -2.33550984    2.69498054   -1.69310706
H            -2.93696894    2.64772062   -4.57813162
H            -2.20626207    1.24552945   -5.39185759
H            -1.16051160    2.54755402   -4.59072207
H            -3.98067712    0.09224841   -3.87201600
H            -2.94118704   -0.67711344   -2.54736977
H            -2.34185012   -0.66990252   -4.21841544
C             0.00000000    0.00000000    0.00000000
C             1.48761530    0.00000000   -0.00000000
C             2.22948725    0.02555485   -1.16431871
C             3.61060270    0.02514309   -1.14557196
C             4.31408545   -0.00091118    0.04154378
O             5.70817181   -0.00161133    0.07347857
C             6.39215552    0.02554485   -1.16467353
C             3.57235113   -0.02648770    1.20694652
C             2.19126855   -0.02606894    1.18779012
H            -0.32435117   -0.45180919   -0.97942368
H            -0.42871866   -0.62946379    0.80019525
H             1.67631713    0.04597223   -2.09440174
H             4.17793082    0.04559495   -2.07716358
H             5.99991582    0.89503077   -1.73115607
H             6.16145390   -0.89429208   -1.73548745
H             7.48760362    0.11392822   -1.01755820
H             4.12172263   -0.04692634    2.13799451
H             1.61612875   -0.04626324    2.10763894



