%chk=cyc_sp_3.chk
%mem=300GB
%nprocshared=96
#p opt=(calcfc,ts,noeigen,maxstep=5) freq b3lyp def2svp em=gd3bj  

Freeze index  [38, 37]  [38, 1]  [30, 11]  [30, 1]  [30, 32]  [30, 31] // Local index  30  38  34  11  (34,)  [37, 38]  [1, 38]

0 1
C            -3.12647955   -4.92038875    2.63809253
C            -3.55548657   -3.19519164    4.56192537
C            -3.85490503   -4.43884749    3.77878258
C            -3.83090881   -6.03054761    2.09389330
C            -4.97971067   -6.27137046    2.90969359
C            -4.98588119   -5.30474188    3.95896613
H            -3.54316506   -6.59511232    1.20928574
H            -5.72350232   -7.05087957    2.75548180
H            -5.74179492   -5.20691877    4.73705278
H            -4.08212396   -3.22466427    5.53290528
N            -3.91521669   -1.90661241    3.87946463
H            -2.47750341   -3.13017080    4.76198569
C            -5.50689003   -3.48214370    0.34928071
C            -6.69612354   -4.00506216    0.93443083
C            -6.86742098   -3.39022189    2.21222262
C            -5.78901884   -2.46896600    2.40033356
C            -4.94137312   -2.48203827    1.22939307
H            -5.10745108   -3.73393342   -0.63031845
H            -7.34872262   -4.75830149    0.49619720
H            -7.65134309   -3.61621422    2.93358008
Fe           -5.05833743   -4.33807191    2.16296817
H            -2.21556000   -4.47791215    2.24080750
C            -5.38393828   -1.74489917    3.64319466
H            -5.95205237   -2.08935902    4.52504712
H            -5.56201249   -0.66451904    3.53134297
C            -3.39624945   -0.78969377    4.69796596
H            -3.62719906    0.16247294    4.20426075
H            -3.85540454   -0.80038993    5.70323063
H            -2.30716184   -0.88414214    4.77830698
Pd           -2.98955439   -1.82160699    1.95351585
O            -1.18304832   -1.56339078    2.78350676
N            -1.96223263   -1.52751935    0.27391103
C            -0.16660828   -1.51808111    1.94651621
C            -0.52132530   -1.35556823    0.44839125
C            -2.62922302   -1.33823752   -0.84721427
O             0.99102539   -1.54816608    2.30337473
O            -3.89919293   -1.33341093   -0.88148755
H             0.02508350   -2.14511687   -0.09726136
H            -4.32504067   -1.69672578    0.34146544
O            -1.85997750   -1.15911594   -2.02728320
C            -1.25144688   -3.48572155   -2.08486593
C            -1.84242338   -2.29797502   -2.81515227
C            -3.21405281   -2.64252166   -3.35534662
C            -0.94281399   -2.00295105   -3.99816001
H            -0.13651090   -3.33793170   -2.09554329
H            -1.53383464   -4.42025425   -2.60770391
H            -1.59855221   -3.46096796   -1.02492408
H            -3.25062837   -3.76097191   -3.44731861
H            -3.34423483   -2.25309814   -4.38528293
H            -4.02684269   -2.36293362   -2.66695152
H            -0.83266987   -2.88378371   -4.67303546
H             0.02166834   -1.65125126   -3.58762544
H            -1.39486349   -1.13762957   -4.52639095
C             0.00000000    0.00000000    0.00000000
C             1.51182701   -0.00000000    0.00000000
O            -0.44448771    0.93816495    0.92852888
C            -1.19347301    1.89983207    0.28789451
C            -1.65108601    2.88492172    1.31234935
C            -2.84250835    2.73013717    1.99037535
C            -3.25713887    3.64588131    2.93554498
C            -2.50101559    4.75766345    3.24659237
C            -1.31000036    4.90896202    2.56628629
C            -0.89232076    3.99497674    1.62037623
H             1.84268609   -0.99830207   -0.37535537
H             1.86474314    0.08087490    1.04675825
H             1.91907927    0.83312078   -0.59005033
H            -0.35611683    0.26191322   -0.99984031
H            -0.62860070    2.44602090   -0.49563420
H            -2.08037245    1.39513890   -0.16357804
H            -3.45116136    1.84878684    1.74996845
H            -4.20940873    3.51483136    3.47209883
H            -2.82417631    5.47740902    3.98765818
H            -0.70497220    5.77008400    2.79433427
H             0.05213010    4.11469215    1.08071143



