%chk=cyc_sp_5.chk
%mem=300GB
%nprocshared=96
#p opt=(calcfc,ts,noeigen,maxstep=5) freq b3lyp def2svp em=gd3bj  

Freeze index  [38, 37]  [38, 1]  [30, 11]  [30, 1]  [30, 32]  [30, 31] // Local index  30  38  34  11  (34,)  [37, 38]  [1, 38]

0 1
C            -0.82562709    6.34530673    0.00738144
C             1.57561203    6.32997148    1.05394744
C             0.42872064    6.96789942    0.32777116
C            -1.56509948    7.23175116   -0.82461791
C            -0.79592091    8.42399321   -0.99838410
C             0.42352894    8.27154096   -0.27375860
H            -2.54512320    7.03296002   -1.25368191
H            -1.08536632    9.29384384   -1.58508930
H             1.23427942    8.99706624   -0.22188856
H             2.27705249    7.10685852    1.40813013
N             2.35983663    5.32723716    0.25700923
H             1.20443161    5.78226429    1.93061240
C             0.25581697    5.59595003   -3.34560315
C             0.72598170    6.89227576   -3.70421919
C             1.87781409    7.18010429   -2.91014104
C             2.12734002    6.04408038   -2.07693290
C             1.14415683    5.02213658   -2.35757055
H            -0.59480382    5.07693828   -3.78107430
H             0.27435125    7.55780781   -4.43797718
H             2.43743786    8.11432256   -2.90561775
Fe            0.29450932    6.79580026   -1.67762922
H            -1.13036352    5.34817735    0.31764596
C             3.06637502    5.92058391   -0.92106586
H             3.51387890    6.89215769   -0.64747010
H             3.88808748    5.23126059   -1.16817807
C             3.32606265    4.67039248    1.16350854
H             3.89399898    3.91512671    0.60608057
H             4.02558690    5.41339248    1.58790419
H             2.77477369    4.16774895    1.96657578
Pd            1.04485975    3.83431562   -0.52745005
O             0.77205813    3.05143127    1.29784337
N            -0.04622871    2.26044382   -1.07096037
C            -0.08716586    2.05560231    1.37410161
C            -0.52521292    1.42607553    0.02932511
C            -0.13237941    1.96647770   -2.35306322
O            -0.49000850    1.60326686    2.42361543
O             0.46221266    2.65262907   -3.24170155
H            -1.62925675    1.39857631    0.03349769
H             0.99330617    3.72101243   -2.62085160
O            -0.94180367    0.85302175   -2.70153716
C            -2.96383102    2.06974026   -2.23493197
C            -2.16595642    1.24124702   -3.21997423
C            -2.02385458    1.97968474   -4.53390207
C            -2.95435351   -0.02489823   -3.48671335
H            -3.39433959    1.34446280   -1.49083985
H            -3.76634367    2.61238284   -2.77155682
H            -2.26545282    2.75249139   -1.69577489
H            -2.86959424    2.71676651   -4.58040487
H            -2.17614539    1.29483703   -5.39248111
H            -1.09635826    2.57031771   -4.59380160
H            -3.97914156    0.19038347   -3.87001223
H            -2.95929536   -0.60389917   -2.54480516
H            -2.36093282   -0.61471809   -4.21618051
C             0.00000000    0.00000000    0.00000000
C             1.48692668   -0.00000000   -0.00000000
C             2.18430041   -0.02434734    1.19049294
C             3.56888604   -0.02434171    1.19052058
C             4.32122700   -0.00070520    0.03528504
O             5.70613596   -0.00203922    0.10160952
C             6.52114850    1.11589031    0.16347603
C             7.96936524    0.60641072    0.22243613
C             6.41054306    1.86221150   -1.16068535
C             6.24626206    2.03332408    1.31430983
C             3.61559248    0.02350719   -1.14859414
C             2.22070482    0.02384186   -1.16542901
H            -0.35594728   -0.56645909   -0.90616301
H            -0.33943988   -0.60337342    0.86544388
H             1.60700336   -0.04348804    2.12591042
H             4.10862852   -0.04386417    2.14494546
H             8.04233389   -0.15495280   -0.58335499
H             8.18220830    0.16352358    1.21313484
H             8.67677897    1.42198767   -0.00881663
H             6.30479950    1.11199027   -1.97197268
H             5.57924278    2.56183733   -1.07659480
H             7.33483058    2.47498625   -1.31282833
H             5.17411578    2.02534051    1.55215440
H             6.89916539    1.85032919    2.19300497
H             6.47115481    3.08176119    0.96549351
H             4.15910564    0.04263330   -2.08332350
H             1.66926732    0.04284496   -2.09439780



