%chk=cyc_rp_10.chk
%mem=300GB
%nprocshared=68
#p opt=(readfc,ts,noeigen,nofreeze,maxcyc=300) freq b3lyp guess=tcheck chkbas em=gd3bj  

Freeze index  [38, 37]  [38, 1]  [30, 11]  [30, 1]  [30, 32]  [30, 31] // Local index  30  38  34  11  (34,)  [37, 38]  [1, 38]

0 1
C             1.38868992   -3.87679077    3.33225853
C             2.35818040   -6.00670603    2.29304844
C             2.21817458   -5.05678933    3.43974932
C             1.70487127   -3.06891073    4.49024856
C             2.63520595   -3.76931495    5.31064611
C             2.96756485   -4.99588828    4.65621024
H             1.24323931   -2.10992312    4.71616292
H             3.04186912   -3.42295574    6.25921902
H             3.69589770   -5.72882928    5.00011320
H             3.24336479   -6.65755940    2.40153735
N             2.42682980   -5.25259901    1.00116688
H             1.47154506   -6.65550923    2.22566063
C             4.54054245   -1.75317194    2.86680690
C             5.37783097   -2.74215363    3.47004695
C             5.26672887   -3.94054640    2.70387440
C             4.33284095   -3.70845577    1.63859382
C             3.91576641   -2.33645315    1.72965123
H             4.40195646   -0.73144184    3.21466394
H             5.98914787   -2.60831672    4.36063761
H             5.76484821   -4.88580455    2.91549083
H             3.20875394   -1.84681423    1.06357353
Fe            3.42406031   -3.43452044    3.42002049
C             3.80162906   -4.73745866    0.68446861
H             4.48875391   -5.60172540    0.64063817
H             3.73127499   -4.31012643   -0.32497012
C             1.97781925   -6.10115134   -0.12333845
H             1.94120335   -5.49281760   -1.03475063
H             2.66253504   -6.95750232   -0.26178506
H             0.96711024   -6.47444665    0.08333166
Pd            1.08231076   -3.60371933    1.20353730
O             1.02250966   -3.28279724   -0.78311120
N            -0.26713273   -2.15251616    1.20272040
C             0.37826975   -2.19932126   -1.16509368
C            -0.42578304   -1.45752089   -0.06885977
C            -1.15699478   -2.13810122    2.17474109
O             0.39766406   -1.77462912   -2.30055087
O            -1.05003342   -2.88240580    3.19962104
H             0.12473590   -3.52943973    3.07846928
H            -1.48390972   -1.49819526   -0.38034358
O            -2.24479605   -1.23956092    2.01439379
C            -3.84854888   -2.95563796    2.53379283
C            -3.31620998   -1.56875491    2.82787316
C            -2.98184032   -1.43504821    4.29832020
C            -4.42567149   -0.58472226    2.51699477
H            -4.45926909   -2.86478093    1.59369145
H            -4.47215350   -3.30071950    3.38142568
H            -2.98574343   -3.63213580    2.32769676
H            -3.59068131   -2.20945009    4.83714975
H            -3.32211380   -0.45731090    4.69533644
H            -1.92739129   -1.66329290    4.51905963
H            -5.35271537   -0.79817986    3.09877963
H            -4.58596927   -0.61729051    1.42350602
H            -4.02242193    0.42366158    2.74657973
C             0.00000000    0.00000000    0.00000000
C             1.50235353    0.00000000    0.00000000
C            -0.62235739    0.81888854   -1.06756852
H             1.93119606   -0.90578741   -0.51736062
H             1.85684077   -0.11211708    1.06514302
H             1.95531516    0.88811140   -0.43975521
H            -0.34033338    0.38857926    0.99236943
H             0.06257798    1.15828286   -1.86328210
H            -1.48662717    0.26335837   -1.51314428
H            -1.07393222    1.75687096   -0.64270029



