%chk=cyc_sp_13.chk
%mem=300GB
%nprocshared=96
#p opt=(calcfc,ts,noeigen,maxstep=5) freq b3lyp def2svp em=gd3bj  

Freeze index  [38, 37]  [38, 1]  [30, 11]  [30, 1]  [30, 32]  [30, 31] // Local index  30  38  34  11  (34,)  [37, 38]  [1, 38]

0 1
C            -2.21919203    3.82851672    4.62193449
C            -0.45382150    5.49605465    3.63996247
C            -1.69043372    5.14793624    4.41407339
C            -3.48433028    3.94959743    5.26192728
C            -3.73611589    5.33806615    5.49002826
C            -2.62410538    6.07641182    4.98638153
H            -4.14386984    3.12625727    5.52872094
H            -4.62261825    5.76014432    5.95971471
H            -2.51873845    7.16051347    4.99027900
H            -0.13397829    6.52554230    3.88260016
N            -0.58209600    5.39117316    2.14726680
H             0.36226913    4.81356307    3.91291091
C            -4.58844727    4.21528076    1.93667741
C            -5.13964672    5.46945643    2.32826811
C            -4.12406722    6.46329388    2.18332455
C            -2.95146215    5.81734086    1.67855593
C            -3.22888128    4.41238085    1.48132051
H            -5.11092204    3.26182168    1.91431763
H            -6.15033700    5.63890683    2.69582147
H            -4.21155109    7.51477824    2.45293575
Fe           -3.46267575    5.01211802    3.46014831
H            -1.74495604    2.90320069    4.30211294
C            -1.56312885    6.35774006    1.56208242
H            -1.46230576    7.34417015    2.04773697
H            -1.28663579    6.47604804    0.50331084
C             0.75755531    5.58948567    1.55330957
H             0.69103144    5.49248118    0.46249854
H             1.14935366    6.59118624    1.80744510
H             1.43215596    4.81231260    1.93067278
Pd           -1.27737822    3.44060035    1.61322219
O             0.48591218    2.62681119    2.11079518
N            -1.65662080    1.58437736    1.00202566
C             0.55997453    1.31456440    2.01980270
C            -0.59199543    0.61602646    1.25716061
C            -2.73355852    1.36916302    0.27297583
O             1.48921103    0.66891629    2.45342336
O            -3.52511410    2.30861215   -0.05090163
H            -0.96271831   -0.19415632    1.90973614
H            -3.11696549    3.40847016    0.60688637
O            -2.98291023    0.02763620   -0.12010863
C            -3.64217512   -0.59188081    2.10885691
C            -3.98577638   -0.55808210    0.63437090
C            -5.32734393    0.11066814    0.42257097
C            -4.10868816   -1.99418118    0.16708554
H            -2.90994215   -1.43526656    2.24142177
H            -4.56216323   -0.76726893    2.69988537
H            -3.13059332    0.36243857    2.37742751
H            -5.88713157    0.02016144    1.39168084
H            -5.93217889   -0.44115744   -0.32511216
H            -5.23937794    1.18890070    0.21675263
H            -4.86972904   -2.56296861    0.75082557
H            -3.09818402   -2.43873431    0.22800722
H            -4.36950132   -1.95079754   -0.91099252
C             0.00000000    0.00000000    0.00000000
C             1.51874074    0.00000000   -0.00000000
C             1.44364285   -1.35789464    0.69821853
C             0.06570483   -1.51812178    0.13323855
H            -0.47262411    0.32303273   -0.94147076
H             1.87209233    0.82645129    0.65251107
H             1.98880163   -0.03619140   -0.99270119
H             1.52717403   -1.20994144    1.78282543
H             2.21866352   -2.05140839    0.31056567
H            -0.71967099   -1.85785049    0.81666067
H             0.06038532   -1.97940117   -0.85667438



