%chk=cyc_sp_32.chk
%mem=300GB
%nprocshared=96
#p opt=(calcfc,ts,noeigen,maxstep=5) freq b3lyp def2svp em=gd3bj  

Freeze index  [38, 37]  [38, 1]  [30, 11]  [30, 1]  [30, 32]  [30, 31] // Local index  30  38  34  11  (34,)  [37, 38]  [1, 38]

0 1
C            -0.68203484   -4.47621406   -4.52139363
C             1.71873430   -3.68513893   -5.20841221
C             0.58620304   -4.66770422   -5.16834331
C            -1.40167841   -5.70255322   -4.57645914
C            -0.60583979   -6.65351853   -5.28749928
C             0.61018422   -6.01281647   -5.66977543
H            -2.38615152   -5.88237501   -4.14920145
H            -0.87584237   -7.68705049   -5.49620047
H             1.43715284   -6.47430196   -6.20788294
H             2.43771800   -3.96992616   -5.99770536
N             2.47972815   -3.53243182   -3.92265564
H             1.33568291   -2.68296078   -5.44336402
C             0.38061697   -6.31157186   -1.61007680
C             0.87978871   -7.47171246   -2.26965997
C             2.03820411   -7.09282374   -3.01440390
C             2.26238096   -5.69749959   -2.79110525
C             1.25624464   -5.19233503   -1.88432772
H            -0.48171030   -6.26842052   -0.94895346
H             0.44296469   -8.46825768   -2.23245222
H             2.61878937   -7.73880565   -3.67135258
Fe            0.44720559   -5.97202343   -3.63580413
H            -1.00908547   -3.55851901   -4.03735801
C             3.19893771   -4.77546683   -3.50229435
H             3.66840292   -5.25851041   -4.37712537
H             4.00474369   -4.45262450   -2.82562480
C             3.43129056   -2.41136322   -4.07928443
H             3.98175634   -2.26629431   -3.14139497
H             4.14761950   -2.62247531   -4.89402470
H             2.86916608   -1.49595760   -4.29731179
Pd            1.13098207   -3.05834986   -2.33221682
O             0.84142046   -1.21569040   -3.06688871
N             0.00435727   -2.35276373   -0.85038739
C            -0.04005555   -0.47366019   -2.42802312
C            -0.49284546   -0.99166370   -1.04120433
C            -0.08902420   -3.05712693    0.25991498
O            -0.45252006    0.58356143   -2.85291804
O             0.52051033   -4.16182019    0.40871811
H            -1.59722252   -0.98654018   -1.04270131
H             1.07589157   -4.46525746   -0.77805264
O            -0.92355805   -2.53295262    1.28225639
C            -0.47634786   -4.48047720    4.97785980
C            -0.52109574   -4.36729893    3.46869730
C            -0.45199958   -5.76903456    2.91481154
C            -1.81853857   -3.68357772    3.10917355
C            -2.95914065   -4.53068425    3.62641341
C            -4.22323779   -3.68313239    3.42223120
C            -4.39069239   -3.58368553    1.91650925
C            -5.72656933   -3.06248879    1.50706926
C            -3.24772796   -2.79450215    1.31970080
C            -1.94171046   -3.43458602    1.64346683
H            -1.02614358   -5.42053866    5.23925860
H             0.57807343   -4.52153325    5.32135810
H            -1.03136886   -3.63146941    5.39625115
H             0.35367727   -3.79612617    3.07704723
H            -0.74525361   -5.84744365    1.86310533
H             0.62124897   -6.09386237    3.00227615
H            -1.02081269   -6.50019813    3.54795129
H            -1.88236216   -2.71130078    3.63496697
H            -2.86569257   -4.73133499    4.69011043
H            -3.08213695   -5.44033875    3.00206442
H            -4.03792553   -2.68732253    3.87970077
H            -5.10878136   -4.18315134    3.84468972
H            -4.29827660   -4.63675570    1.53320906
H            -6.09233011   -2.25909949    2.17307876
H            -6.44768269   -3.91522002    1.51881043
H            -5.64037633   -2.69960726    0.45384400
H            -3.29634421   -1.73073870    1.62855602
H            -3.39877463   -2.80005142    0.21102558
H            -1.81738181   -4.32971300    1.02150206
C             0.00000000    0.00000000    0.00000000
C             1.48759672   -0.00000000    0.00000000
C             2.15557986   -0.87412417    0.83262428
C             3.54168771   -0.91931891    0.87563015
C             4.30343159   -0.08888270    0.08456509
C             3.61994723    0.78300178   -0.74592814
C             2.24279853    0.83257678   -0.79309408
H            -0.39496422    0.99505326   -0.28161398
H            -0.42641617   -0.23092355    0.99464792
H             1.57307352   -1.54335537    1.47009344
H             4.04407998   -1.61414597    1.53753423
H             5.38986548   -0.09492507    0.09022272
H             4.20185842    1.44526722   -1.37685364
H             1.71470925    1.53136950   -1.45857746



