%chk=cyc_rp_16.chk
%mem=300GB
%nprocshared=68
#p opt=(readfc,ts,noeigen,nofreeze,maxcyc=300) freq b3lyp guess=tcheck chkbas em=gd3bj  

Freeze index  [38, 37]  [38, 1]  [30, 11]  [30, 1]  [30, 32]  [30, 31] // Local index  30  38  34  11  (34,)  [37, 38]  [1, 38]

0 1
C            -3.72776989    2.17166422    3.07400706
C            -5.56892718    3.50575401    1.89640241
C            -5.07774755    2.69029360    3.04993316
C            -3.69173502    1.22376766    4.16660732
C            -4.95228495    1.22495704    4.83004779
C            -5.81952256    2.12183769    4.13238390
H            -2.81035622    0.65826301    4.46186060
H            -5.21898171    0.63019000    5.70197395
H            -6.86955989    2.30282496    4.35734104
H            -6.67147429    3.55341948    1.86401042
N            -5.03775956    2.95489944    0.60924730
H            -5.19106432    4.53691505    1.97080348
C            -5.07981906   -1.27943823    2.11357411
C            -6.39537646   -0.96793403    2.57758840
C            -6.86786413    0.15806784    1.83976426
C            -5.83187328    0.57026142    0.93552157
C            -4.74045613   -0.35143356    1.09018502
H            -4.44516048   -2.08474262    2.47804129
H            -6.94047599   -1.49269025    3.36006512
H            -7.82903813    0.65345442    1.97073767
H            -3.80053903   -0.31308058    0.54396410
Fe           -5.16690339    0.68194168    2.83808468
C            -5.84051904    1.80182612    0.07845589
H            -6.87860770    2.14897984   -0.07278861
H            -5.41332783    1.57401035   -0.90751405
C            -4.99156865    4.00637426   -0.42922795
H            -4.50462922    3.60077653   -1.32391408
H            -6.01087236    4.35663226   -0.67352175
H            -4.39496818    4.85188174   -0.06483856
Pd           -3.04522771    2.30046319    1.02036706
O            -2.55745685    2.24192231   -0.93206527
N            -1.13156840    1.83122588    1.23182255
C            -1.37721108    1.72654396   -1.20825531
C            -0.44902528    1.45216244    0.00074568
C            -0.51979457    2.22018112    2.33242833
O            -1.00870643    1.46296352   -2.33285846
O            -1.15481644    2.69040454    3.32814221
H            -2.46310867    2.59673887    3.02316389
H             0.43893826    2.09264681   -0.13928707
O             0.89339007    2.08184500    2.34545912
C             1.19196068    4.34178230    3.11374158
C             1.48469611    2.87016365    3.31857580
C             1.09104040    2.44575634    4.71743557
C             2.98283112    2.68585085    3.18632307
H             1.86762952    4.68358703    2.28207703
H             1.40193939    4.89523542    4.04971381
H             0.13487371    4.45088019    2.77429650
H             1.09141102    3.37577261    5.34655599
H             1.86061905    1.78308952    5.16240701
H             0.06892903    2.03913017    4.76869766
H             3.55005098    3.31934405    3.90770793
H             3.24002160    2.89745910    2.13202296
H             3.18029785    1.60560000    3.34825651
C             0.00000000    0.00000000    0.00000000
C             1.51578652    0.00000000    0.00000000
C            -0.55379262   -0.73389378    1.20030517
C            -0.12809130   -2.16320147    1.25705303
H             1.82669103    0.65167704    0.84020180
H             1.92779577   -1.02344381    0.07273749
H             1.82986801    0.43130800   -0.98712128
H            -0.41414925   -0.46454053   -0.90571544
H            -1.65717723   -0.71087069    1.11011990
H            -0.31373495   -0.21128584    2.15420941
H            -0.63443610   -2.63098177    2.12700372
H            -0.51505792   -2.69743589    0.35938259
H             0.96351328   -2.30509364    1.33317990



