%chk=cyc_rp_8.chk
%mem=300GB
%nprocshared=68
#p opt=(readfc,ts,noeigen,nofreeze,maxcyc=300) freq b3lyp guess=tcheck chkbas em=gd3bj  

Freeze index  [38, 37]  [38, 1]  [30, 11]  [30, 1]  [30, 32]  [30, 31] // Local index  30  38  34  11  (34,)  [37, 38]  [1, 38]

0 1
C            -4.58617080    1.99160304    1.74999086
C            -6.03502292    3.23667691    0.04499028
C            -5.88552192    2.44541807    1.30531770
C            -4.84460154    1.04640808    2.81460430
C            -6.24669545    0.98756953    3.05916819
C            -6.89738877    1.84222839    2.11609484
H            -4.07186508    0.52345454    3.37424397
H            -6.74110503    0.38071833    3.81575327
H            -7.97282672    1.97303449    2.00535427
H            -7.07528280    3.23183423   -0.32483033
N            -5.10976573    2.71181963   -1.00894143
H            -5.74540485    4.28464219    0.21674331
C            -5.42002401   -1.51984275    0.47131427
C            -6.82720439   -1.27131926    0.50470377
C            -7.10070246   -0.16901416   -0.35879583
C            -5.85682532    0.29207420   -0.90743288
C            -4.82510971   -0.57666203   -0.41195929
H            -4.89221081   -2.29406831    1.02460534
H            -7.56195039   -1.82147765    1.08972212
H            -8.07704222    0.28007056   -0.53628094
H            -3.76559942   -0.49359016   -0.64392785
Fe           -5.81421350    0.43511545    1.10555675
C            -5.65756158    1.52190056   -1.74362007
H            -6.61360717    1.81928316   -2.21112313
H            -4.93829399    1.31474550   -2.54752925
C            -4.79449186    3.76438341   -1.99832288
H            -4.03841607    3.38248318   -2.69444386
H            -5.70423866    4.06576785   -2.54865764
H            -4.37761631    4.63728950   -1.48078606
Pd           -3.31236115    2.15289225    0.00319808
O            -2.24629798    2.11777897   -1.70431937
N            -1.53698742    1.77521725    0.79843311
C            -1.01620125    1.65915955   -1.59751993
C            -0.49284546    1.42915423   -0.15818197
C            -1.31115744    2.19275189    2.02788507
O            -0.30851381    1.41349908   -2.55084674
O            -2.24195772    2.63215120    2.77377248
H            -3.38765740    2.47637008    2.08346958
H             0.36522845    2.11117166   -0.02829725
O             0.03444081    2.12180757    2.47591385
C            -0.02012680    4.39333018    3.26580391
C             0.26188506    2.93728961    3.57195370
C            -0.52278965    2.49452314    4.78856313
C             1.73494589    2.82447390    3.90845761
H             0.86213233    4.76696036    2.67669943
H            -0.13311190    4.95607290    4.21290498
H            -0.92563572    4.45203751    2.61683148
H            -0.75782235    3.42345412    5.37385772
H             0.10208375    1.86918644    5.45779063
H            -1.49170629    2.03972364    4.52963798
H             2.02383551    3.48417975    4.75979720
H             2.29369857    3.04816237    2.98097035
H             1.92184664    1.75482863    4.13885847
C             0.00000000    0.00000000    0.00000000
C             1.48759672   -0.00000000    0.00000000
C             2.15557986   -0.13287123   -1.19987562
C             3.54168771   -0.13970669   -1.26188647
C             4.30343159   -0.01343278   -0.12194650
C             3.61994723    0.11909984    1.07485618
C             2.24279853    0.12659138    1.14287223
H            -0.39496422   -0.37877395    0.96227217
H            -0.42641617   -0.65144276   -0.78630306
H             1.57307352   -0.23460596   -2.11850904
H             4.04407998   -0.24537526   -2.21568718
H             5.38986548   -0.01427339   -0.13018133
H             4.20185842    0.21984844    1.98398335
H             1.71470925    0.23270516    2.10199645



