%chk=cyc_sp_29.chk
%mem=300GB
%nprocshared=96
#p opt=(calcfc,ts,noeigen,maxstep=5) freq b3lyp def2svp em=gd3bj  

Freeze index  [38, 37]  [38, 1]  [30, 11]  [30, 1]  [30, 32]  [30, 31] // Local index  30  38  34  11  (34,)  [37, 38]  [1, 38]

0 1
C            -2.76822120   -4.88546561   -3.06819316
C            -4.69523190   -3.14691228   -3.42251924
C            -3.92957483   -4.39293277   -3.75545482
C            -2.25399102   -5.99406230   -3.79716969
C            -3.10868349   -6.22295989   -4.91983533
C            -4.15201253   -5.25051473   -4.88524284
H            -1.36361717   -6.56535931   -3.54238654
H            -2.98362133   -6.99850521   -5.67318165
H            -4.95408119   -5.14351758   -5.61437330
H            -5.68323966   -3.16761436   -3.91691750
N            -4.01763631   -1.85984300   -3.79656700
H            -4.85917944   -3.08772763   -2.33812176
C            -0.55109991   -3.44462052   -5.51398567
C            -1.17822994   -3.95662071   -6.68645505
C            -2.45742926   -3.33362205   -6.81153505
C            -2.60449804   -2.41830212   -5.72176007
C            -1.40627776   -2.44331817   -4.91341722
H             0.43970156   -3.70439926   -5.14875765
H            -0.76614094   -4.70805759   -7.35789309
H            -3.20558783   -3.55056251   -7.57255974
Fe           -2.35386285   -4.29336073   -5.01103383
H            -2.33851099   -4.45107155   -2.16816743
C            -3.82910962   -1.68998605   -5.27126157
H            -4.73122165   -2.02589054   -5.81203142
H            -3.71699526   -0.60911767   -5.44617972
C            -4.81210471   -0.74177314   -3.24382978
H            -4.32083628    0.20911194   -3.48502868
H            -5.83203977   -0.74394409   -3.66953227
H            -4.85695009   -0.84278655   -2.15329221
Pd           -2.06169048   -1.79146915   -2.93461792
O            -2.83002641   -1.54029852   -1.10006133
N            -0.34738823   -1.51331082   -1.96160936
C            -1.95965401   -1.50617204   -0.11160609
C            -0.47316104   -1.34967857   -0.51467116
C             0.75215078   -1.32595028   -2.66413033
O            -2.27822586   -1.54173421    1.05698970
O             0.74446113   -1.31313542   -3.93448389
H             0.08570390   -2.14573973    0.00843783
H            -0.49396606   -1.66692110   -4.32190067
O             1.95800817   -1.15832510   -1.93324345
C             2.02229486   -3.48908449   -1.34151141
C             2.73946697   -2.30162000   -1.94888724
C             3.23204545   -2.64031330   -3.33976570
C             3.95323622   -2.01895239   -1.08708289
H             2.07066346   -3.34853902   -0.22663674
H             2.53013353   -4.42466088   -1.64688081
H             0.95162032   -3.45622571   -1.65319702
H             3.31632722   -3.75899709   -3.38635716
H             4.25933840   -2.25577012   -3.50151421
H             2.51878307   -2.35168829   -4.12757092
H             4.62630835   -2.90420058   -1.00483735
H             3.57682982   -1.67120243   -0.10736572
H             4.47120454   -1.15367682   -1.55094165
C             0.00000000    0.00000000    0.00000000
C             1.49861196   -0.00000000    0.00000000
C            -0.59289370    0.18143996    1.37713107
C            -0.47275222    1.13733878   -0.86310731
H             1.92379494   -1.01431250   -0.23307492
H             1.93479136    0.28433345    0.99053971
H             1.90247604    0.65853931   -0.82044831
H            -1.52460863    0.79413914    1.30362581
H             0.09165946    0.69916933    2.05104994
H            -0.87472156   -0.78221806    1.84621804
H            -1.31077981    0.77053388   -1.47392212
H            -0.85088681    2.00270750   -0.25928875
H             0.30463346    1.51732592   -1.55231209



