%chk=cyc_sp_19.chk
%mem=300GB
%nprocshared=96
#p opt=(calcfc,ts,noeigen,maxstep=5) freq b3lyp def2svp em=gd3bj  

Freeze index  [38, 37]  [38, 1]  [30, 11]  [30, 1]  [30, 32]  [30, 31] // Local index  30  38  34  11  (34,)  [37, 38]  [1, 38]

0 1
C            -0.66780529    6.36385629   -0.00110103
C             1.73284670    6.29034889    1.04434221
C             0.60177898    6.95555245    0.31782038
C            -1.38546269    7.26723566   -0.83398738
C            -0.58700499    8.43976762   -1.00978717
C             0.62865308    8.25808565   -0.28552972
H            -2.37033946    7.09224722   -1.26230632
H            -0.85506102    9.31572327   -1.59757065
H             1.45719581    8.96332572   -0.23506052
H             2.45354288    7.05006840    1.39710392
N             2.49152307    5.26734580    0.24843411
H             1.34862804    5.75324383    1.92194901
C             0.39298541    5.58322790   -3.35354861
C             0.89501168    6.86698021   -3.71420130
C             2.05404143    7.12721821   -2.92107493
C             2.27570669    5.98650467   -2.08639748
C             1.26730712    4.98890244   -2.36513735
H            -0.47048317    5.08489566   -3.78788839
H             0.45967201    7.54250400   -4.44867441
H             2.63669290    8.04725709   -2.91812479
Fe            0.46231159    6.78405880   -1.68727320
H            -0.99704949    5.37503280    0.31070295
C             3.21197563    5.84133073   -0.93080597
H             3.68360678    6.80187082   -0.65878252
H             4.01619151    5.13147312   -1.17734488
C             3.44160349    4.58796767    1.15539124
H             3.99032562    3.81805956    0.59874994
H             4.15957843    5.31395556    1.57841416
H             2.87841327    4.10028277    1.95942311
Pd            1.13947982    3.80645212   -0.53331011
O             0.84825422    3.03311496    1.29320624
N             0.00936885    2.25940768   -1.07409899
C            -0.03539368    2.05903616    1.37126633
C            -0.48962437    1.43871724    0.02758038
C            -0.08470956    1.96589417   -2.35574824
O            -0.44880831    1.61829923    2.42160347
O             0.52628349    2.63583619   -3.24562841
H            -1.59400834    1.43864810    0.03231698
H             1.08405973    3.69156168   -2.62652635
O            -0.92171082    0.87239923   -2.70227904
C            -2.91266324    2.13959964   -2.23641369
C            -2.13611047    1.29018397   -3.22067583
C            -1.97638688    2.02304282   -4.53570278
C            -2.95584081    0.04363815   -3.48526834
H            -3.36066877    1.42626867   -1.49110297
H            -3.70172773    2.70125847   -2.77341495
H            -2.19727145    2.80554488   -1.69854465
H            -2.80358656    2.78083366   -4.58283392
H            -2.14607490    1.34099824   -5.39325045
H            -1.03454097    2.59037829   -4.59686991
H            -3.97516269    0.28376951   -3.86838009
H            -2.97467762   -0.53375502   -2.54254895
H            -2.37762175   -0.56174659   -4.21419219
C             0.00000000    0.00000000    0.00000000
C             1.48264619    0.00000000    0.00000000
C             2.16604040   -0.02295616    1.20231945
C             3.53364089   -0.02328607    1.22044720
C             4.28709668   -0.00116038    0.06240203
O             5.66179754   -0.00429223    0.22715120
C             6.43939537    1.11389017    0.34161159
O             5.87620984    2.20625032    0.29482935
O             7.80595488    1.14777195    0.50610019
C             8.48686802    2.33538378    0.61028643
C             8.00498155    3.15126666    1.80908388
C             8.55487345    3.19916396   -0.59416136
C             9.94241903    1.96650605    0.95175955
C             3.62787988    0.02141856   -1.12009058
C             2.24464335    0.02197710   -1.15003299
H            -0.33268164   -0.47413142    0.94978261
H            -0.42228175   -0.56237960   -0.85599070
H             1.60852847   -0.04083975    2.13879198
H             4.00812207   -0.04220769    2.21141571
H             7.16876995    3.78224071    1.45128771
H             8.83715570    3.73564005    2.23092865
H             7.61749632    2.39083027    2.53944832
H             8.96975444    2.59071224   -1.44132682
H             7.63407864    3.68823701   -0.90041879
H             9.31116595    3.99353458   -0.41164877
H            10.65030091    2.67882192    0.51069875
H            10.18530924    0.95782343    0.55434777
H            10.10460873    1.96066527    2.04113618
H             4.20488129    0.03882608   -2.03128247
H             1.69249313    0.04009120   -2.09834390



