%chk=rp_0_2.chk
%mem=300GB
%nprocshared=68
#p opt=(calcfc,ts,noeigen,maxstep=5) freq b3lyp def2svp em=gd3bj  

Freeze index  [11, 18]  [18, 19]  [3, 19]  [3, 32]  [3, 28]  [3, 21] // Local index  3  18  20  32  (20,)  [11, 18]  [18, 19]

-1 1
Fe            2.04814471   -5.28761893   -1.01636629
C            -2.95390564   -2.11479302    2.32466970
Pd           -1.08639323   -3.88774971    1.14074831
C            -0.66134544   -6.58894432    0.20129584
H             3.30085097   -7.22298178   -2.67168380
H             0.70045175   -6.61454569   -3.12619579
H             0.41553834   -3.92787297   -2.86155630
C            -0.04959626   -1.41422260    0.11796037
O            -3.77724259   -1.68564279    3.10627836
C             0.70439506   -5.99836958    0.31808660
O             0.77245694   -2.15373113   -0.51337406
C             2.24700721   -4.36867409    0.83934388
C             2.91689218   -5.62558130    0.84040926
C             1.95583311   -6.64063925    0.55015399
H             2.71725027   -3.39746306    0.98070685
H             3.98077481   -5.78391401    1.00979021
H             2.14700496   -7.71114995    0.48747859
H             0.56435252   -3.40041307   -0.12701633
C             0.85943972   -4.56572128    0.50780829
C            -2.10137186   -1.16239162    1.45840419
O            -2.78383180   -3.39991915    2.09182741
C             2.62295939   -3.93495463   -2.46001332
C             3.56389868   -5.00716029   -2.39605346
C             2.86745689   -6.22435198   -2.66753432
C             1.49491079   -5.90284221   -2.90690415
C             1.34448494   -4.48854005   -2.77891270
H             2.82388823   -2.88564504   -2.25837579
N            -0.97026539   -1.91364789    0.91355331
H            -1.74307044   -0.34287554    2.10191171
H            -0.86716298   -7.31494036   -0.55732223
H             4.62072766   -4.91694975   -2.15083494
O            -1.68752853   -6.18732906    1.09686659
C            -2.97652643   -0.56377057    0.36928963
C            -3.24546473   -1.67062164   -0.61030643
C            -4.18865997    0.09017332    0.91765155
H            -3.20095343   -2.68958876   -0.12889243
H            -2.40111350   -1.69509149   -1.35812687
H            -4.19423974   -1.58654285   -1.13952481
H            -2.35848918    0.20942142   -0.15207578
H            -5.13912343   -0.43472477    0.72122408
H            -4.06098675    0.25898705    2.01733764
H            -4.32108543    1.11908335    0.48398332
O             0.00000000    0.00000000    0.00000000
C             2.40555702   -0.00000000    0.00000000
C             1.12477966    0.42600558   -0.68660676
C             1.12396929   -0.03325178   -2.12916593
C             1.09532837    1.94092946   -0.68605193
H             2.54491719    0.70158891    0.86797324
H             3.25050003    0.07528902   -0.71193873
H             2.26843548   -1.03182813    0.40136672
H             2.19866110   -0.17996464   -2.41941244
H             0.73905390    0.76233180   -2.79868670
H             0.63147211   -1.00855971   -2.26664806
H             1.99127256    2.37941333   -1.18452065
H             0.98932583    2.25912208    0.36750794
H             0.15669605    2.23544759   -1.20023908



