%chk=rp_1_2.chk
%mem=300GB
%nprocshared=68
#p opt=(calcfc,ts,noeigen,maxstep=5) freq b3lyp def2svp em=gd3bj  

Freeze index  [11, 18]  [18, 19]  [3, 19]  [3, 32]  [3, 28]  [3, 21] // Local index  3  18  20  32  (20,)  [11, 18]  [18, 19]

-1 1
Fe            2.04817043   -5.28862807   -1.01105573
C            -2.95390554   -2.11247429    2.32677853
Pd           -1.08637924   -3.88660598    1.14464357
C            -0.66131391   -6.58874977    0.20790246
H             3.30089189   -7.22565230   -2.66443051
H             0.70048749   -6.61766833   -3.11956063
H             0.41556060   -3.93073883   -2.85761225
C            -0.04959626   -1.41410312    0.11938415
O            -3.77723929   -1.68254549    3.10795706
C             0.70442037   -5.99804099    0.32410298
O             0.77247081   -2.15424415   -0.51120981
C             2.24701833   -4.36781909    0.84373827
C             2.91691296   -5.62472771    0.84605907
C             1.95586496   -6.64007827    0.55681446
H             2.71726363   -3.39646574    0.98411328
H             3.98079780   -5.78287408    1.01560564
H             2.14704081   -7.71064157    0.49521471
H             0.56437306   -3.40053810   -0.12360238
C             0.85945711   -4.56521037    0.51238549
C            -2.10137262   -1.16093582    1.45956604
O            -2.78382548   -3.39783742    2.09523367
C             2.62297603   -3.93740412   -2.45605819
C             3.56392652   -5.00954427   -2.39101752
C             2.86749027   -6.22700898   -2.66128766
C             1.49494452   -5.90574952   -2.90098366
C             1.34451319   -4.49131507   -2.77440074
H             2.82389822   -2.88789155   -2.25547006
N            -0.97026427   -1.91273529    0.91547901
H            -1.74307855   -0.34077258    2.10225569
H            -0.86712191   -7.31550215   -0.54997650
H             4.62075849   -4.91907877   -2.14589303
O            -1.68749449   -6.18623583    1.10307250
C            -2.97652696   -0.56341520    0.36985046
C            -3.34290265   -1.55230370   -0.70385025
H            -3.92569680   -0.22102305    0.84078519
H            -2.51875852    0.30856384   -0.12265344
H            -3.75537413   -2.49487506   -0.31542435
H            -4.16753967   -1.07194625   -1.30317950
H            -2.48905081   -1.73201117   -1.40624648
O             0.00000000    0.00000000    0.00000000
C             2.40555702    0.00000000    0.00000000
C             1.12477966    0.42531409   -0.68703532
C             1.12396929   -0.03539540   -2.12913137
C             1.09532837    1.94023777   -0.68800571
H             2.54491719    0.70246243    0.86726645
H             3.25050003    0.07457220   -0.71201417
H             2.26843548   -1.03142351    0.40240535
H             2.19866110   -0.18240041   -2.41923003
H             0.73905390    0.75951370   -2.79945280
H             0.63147211   -1.01084126   -2.26563150
H             1.99127256    2.37821956   -1.18691563
H             0.98932583    2.25949095    0.36523328
H             0.15669605    2.23423806   -1.20248911



