%chk=rp_11_1.chk
%mem=300GB
%nprocshared=68
#p opt=(calcfc,ts,noeigen,maxstep=5) freq b3lyp def2svp em=gd3bj  

Freeze index  [11, 18]  [18, 19]  [3, 19]  [3, 33]  [3, 28]  [3, 21] // Local index  3  18  20  33  (20,)  [11, 18]  [18, 19]

0 1
Fe            2.04818266    5.21091375    1.35581136
C            -2.95393826    2.26057092   -2.18314965
Pd           -1.08640088    3.95332720   -0.88719012
C            -0.66131955    6.58819179    0.22480663
H             3.30092620    7.03529108    3.13268989
H             0.70052167    6.39875568    3.54698987
H             0.41559550    3.73480963    3.10932232
C            -0.04959626    1.41888918   -0.02633827
O            -3.77726571    1.88280788   -2.99084148
C             0.70442832    6.00638352    0.07007378
O             0.77247431    2.11606894    0.65144799
C             2.24701722    4.41376206   -0.55539293
C             2.91692809    5.66810168   -0.47526728
C             1.95586801    6.66229788   -0.12001012
H             2.71724707    3.45371280   -0.75918927
H             3.98079274    5.83703122   -0.63406432
H             2.14703667    7.72651934    0.01167200
H             0.56437194    3.38510208    0.34641553
C             0.85945154    4.58897816   -0.21179485
C            -2.10139058    1.25419381   -1.38023574
O            -2.78383894    3.52796699   -1.86777075
C             2.62300133    3.76780311    2.70905534
C             3.56394320    4.84190009    2.71448352
C             2.86751876    6.03900799    3.06403490
C             1.49497733    5.70270800    3.28216017
C             1.34453320    4.29964723    3.06305646
H             2.82391127    2.73369742    2.44003714
N            -0.97027694    1.96868044   -0.78800954
H            -1.74309028    0.47795355   -2.07534857
H            -1.12840213    6.26804675    1.16721626
H            -0.65821925    7.69293299    0.19975965
H             4.60267869    4.76897730    2.46823772
N            -1.49207234    6.05197180   -0.86295439
C            -3.32355504    6.59342236    0.61458965
C            -2.73864843    5.58734993   -0.34261532
C            -1.65391193    7.14495631   -1.78144611
C            -0.23018636    7.48596512   -2.26094717
H            -4.35025232    6.32391081    0.95862347
H            -2.66545255    6.54974202    1.52645512
H            -3.25115224    7.60322922    0.23822330
H            -2.61776501    4.58613015    0.15494756
H            -3.47511454    5.37866323   -1.17079518
H            -2.27918067    6.88594856   -2.66157973
H            -2.07097924    8.01161054   -1.23930344
H             0.48322582    7.47095650   -1.42406861
H            -0.22546100    8.47390185   -2.77724019
H            -0.00059773    6.71355861   -3.03400604
C            -2.97653118    0.58647272   -0.33205659
C            -3.24546322    1.62773579    0.71699170
C            -4.18866854   -0.03069746   -0.92149428
H            -3.20095697    2.67567048    0.30240283
H            -2.40110125    1.60386013    1.46481703
H            -4.19422622    1.50964950    1.23968031
H            -2.35848523   -0.21877362    0.13826577
H            -5.13913961    0.48041667   -0.69156854
H            -4.06100056   -0.12812078   -2.02979286
H            -4.32108721   -1.08546321   -0.55519961
O             0.00000000    0.00000000    0.00000000
C             2.40555702    0.00000000   -0.00000000
C             1.12477966   -0.46947840    0.65764704
C             1.12396929   -0.10438718    2.12686543
C             1.09532837   -1.98120096    0.55921124
H             2.54491719   -0.64404151   -0.91149059
H             3.25050003   -0.12113142    0.70558654
H             2.26843548    1.05560516   -0.33385966
H             2.19866110    0.02326574    2.42598486
H             0.73905390   -0.94156738    2.74358304
H             0.63147211    0.85999983    2.32707680
H             1.99127256   -2.45097562    1.02830711
H             0.98932583   -2.23065619   -0.51270622
H             0.15669605   -2.30832629    1.05329460



