%chk=rp_12_1.chk
%mem=300GB
%nprocshared=68
#p opt=(calcfc,ts,noeigen,maxstep=5) freq b3lyp def2svp em=gd3bj  

Freeze index  [11, 18]  [18, 19]  [3, 19]  [3, 57]  [3, 28]  [3, 21] // Local index  3  18  20  57  (20,)  [11, 18]  [18, 19]

0 1
Fe            2.04815393    5.14128417    1.59969038
C            -2.95393247    2.36085279   -2.07429083
Pd           -1.08640960    3.99071135   -0.70005145
C            -0.66135178    6.57029331    0.53478298
H             3.30087501    6.87997406    3.46051986
H             0.70047543    6.22463284    3.84435430
H             0.41556686    3.58425286    3.28173841
C            -0.04959626    1.41855574    0.04049459
O            -3.77725532    2.02155499   -2.89887461
C             0.70440335    5.99642561    0.35284489
O             0.77246548    2.08305414    0.75035318
C             2.24699193    4.43502813   -0.34694285
C             2.91689261    5.68421211   -0.20782018
C             1.95583696    6.66056924    0.19384544
H             2.71724916    3.48564656   -0.59570913
H             3.98076961    5.86045075   -0.35848198
H             2.14699443    7.71741043    0.37550494
H             0.56436446    3.36503974    0.50543170
C             0.85943277    4.59386448    0.00454420
C            -2.10138026    1.31777252   -1.31965539
O            -2.78384324    3.61199001   -1.69958556
C             2.62297537    3.63606197    2.88348428
C             3.56392837    4.70871096    2.93948107
C             2.86747848    5.88803260    3.34501726
C             1.49494489    5.54183217    3.54704870
C             1.34450916    4.15062035    3.26213423
H             2.82390042    2.61579244    2.56607834
N            -0.97027052    2.00359946   -0.69444150
H            -1.74308124    0.57513581   -2.05055171
H            -1.12844287    6.20611893    1.46107541
H            -0.65827218    7.67499169    0.56178548
C             5.03949420    4.62172924    2.58518726
O             5.17995815    4.58373537    1.17891599
C             5.64756630    3.42451294    3.20351061
C             6.95715368    3.05926047    3.01229747
C             7.44851849    1.92566885    3.62411004
C             6.67733495    1.11212216    4.44205384
C             5.36496736    1.48912705    4.62604139
C             4.86565151    2.62008961    4.01898589
C             5.67862823    5.88368405    3.03187783
C             5.23171828    7.05786474    2.43437611
C             5.77490839    8.27837478    2.79375793
C             6.76692937    8.35549485    3.74853114
C             7.21084013    7.16906928    4.34466665
C             6.66109559    5.95927122    3.97718094
H             4.55504655    3.90960498    0.80464449
H             7.58568970    3.67583587    2.37731457
H             8.49228298    1.60773433    3.48996608
H             7.08989856    0.22042372    4.91356915
H             4.74812110    0.86940971    5.25931647
H             3.81110483    2.88856522    4.19026252
H             4.45321154    7.04838641    1.67805373
H             5.42812333    9.18975397    2.33038966
H             7.18335200    9.30541824    4.02211493
H             7.99343068    7.22793347    5.09771646
H             7.02497944    5.06172468    4.45459611
N            -1.49208934    6.08588308   -0.57701603
C            -0.96011585    6.41346769   -1.87129198
C            -2.88142290    6.35249236   -0.41998879
H            -1.12784646    7.45305030   -2.17915510
H             0.13565939    6.17502052   -1.83664112
H            -1.38215027    5.68008275   -2.60592480
H            -3.12387021    7.01308371    0.42508046
H            -3.31274538    6.75382180   -1.36589952
H            -3.39696875    5.36719774   -0.24643837
C            -2.97652341    0.60143414   -0.30408612
C            -3.64398897    1.66696796    0.54252284
C            -3.99580575   -0.27457365   -0.99667182
C            -4.89410036   -0.98940510   -0.04302235
H            -4.12098294    2.37299448   -0.16549360
H            -4.35901745    1.23140393    1.26466494
H            -2.82390581    2.16562410    1.12380845
H            -2.31645523   -0.04608911    0.28977278
H            -3.43003029   -1.03646223   -1.56724674
H            -4.58906584    0.29323275   -1.74922356
H            -5.55668845   -1.65253824   -0.63737491
H            -4.28471247   -1.66711802    0.59754046
H            -5.49939932   -0.32068599    0.59254537
O             0.00000000    0.00000000    0.00000000
C             2.40555702   -0.00000000    0.00000000
C             1.12477966   -0.49992088    0.63481392
C             1.12396929   -0.20440776    2.11959211
C             1.09532837   -2.00533248    0.46531289
H             2.54491719   -0.60041281   -0.94080232
H             3.25050003   -0.15421727    0.69910101
H             2.26843548    1.07015321   -0.28378979
H             2.19866110   -0.09097944    2.42438994
H             0.73905390   -1.06969565    2.69620998
H             0.63147211    0.74948351    2.36498639
H             1.99127256   -2.49667199    0.91177078
H             0.98932583   -2.20404343   -0.61716063
H             0.15669605   -2.35535731    0.94344672



