%chk=rp_16_3.chk
%mem=300GB
%nprocshared=68
#p opt=(calcfc,ts,noeigen,maxstep=5) freq b3lyp def2svp em=gd3bj  

Freeze index  [11, 18]  [18, 19]  [3, 19]  [3, 36]  [3, 28]  [3, 21] // Local index  3  18  20  36  (20,)  [11, 18]  [18, 19]

0 1
Fe            0.15239992   -3.94661541   -4.19378959
C            -4.18361578    0.22493120   -1.02410110
Pd           -2.81251469   -1.66720981   -2.62801114
C            -2.80876914   -3.05089721   -5.16672840
H             1.43423352   -5.27708659   -6.34826207
H             0.39619825   -2.81210756   -6.77871818
H             0.95689843   -1.28192823   -4.60764430
C            -0.60067746   -0.75358331   -1.04292798
O            -5.09570794    0.77312529   -0.44052635
C            -1.86330516   -3.81863196   -4.30395940
O             0.09605243   -1.52240781   -1.78096883
C            -0.74424356   -4.32838347   -2.35585344
C            -0.77152254   -5.49869775   -3.16716664
C            -1.49339746   -5.19426924   -4.36067170
H            -0.22747792   -4.22688290   -1.40348822
H            -0.30381770   -6.45300589   -2.93024450
H            -1.70054402   -5.87925225   -5.18184893
H            -0.73569564   -2.17117473   -2.57725527
C            -1.41346477   -3.25382038   -3.04255785
C            -2.71836032    0.41569986   -0.57584526
O            -4.35507553   -0.49161640   -2.11581879
C             2.00180830   -3.11185237   -3.83726340
C             2.15682792   -4.41426648   -4.40187224
C             1.51215106   -4.42401082   -5.67644501
C             0.96399011   -3.12297096   -5.90307166
C             1.26699790   -2.31276121   -4.76685598
H             2.33913199   -2.78850374   -2.85554696
N            -1.90076260   -0.62667128   -1.19685577
H            -2.68211330    0.32831085    0.52193979
H            -2.31230546   -2.19020086   -5.63740950
H             2.65121842   -5.26144542   -3.92960412
C            -3.42169206   -3.90357490   -6.26566712
H            -3.93578490   -4.77861439   -5.81302976
H            -4.19031953   -3.28461967   -6.79168283
H            -2.63458690   -4.22591534   -6.98228330
N            -3.85814357   -2.50801733   -4.29209074
C            -4.54845652   -3.51649270   -3.53583932
C            -4.70517343   -1.55630694   -4.92672201
H            -5.29611494   -4.07880398   -4.10895362
H            -3.76147472   -4.19970276   -3.12032284
H            -4.99081750   -3.01951589   -2.63419122
H            -4.55961819   -1.47307052   -6.01354914
H            -5.77420007   -1.76420914   -4.69047115
H            -4.48458109   -0.55101786   -4.47126015
C            -2.26004755    1.81397540   -0.95685771
C            -2.51916577    2.02838401   -2.40594034
C            -1.53803507    1.69417285   -3.31656724
C            -1.72276948    1.87167686   -4.68022365
C            -2.89813287    2.39041397   -5.17528490
C            -3.87375699    2.72129077   -4.25022401
C            -3.69606698    2.54723850   -2.89399540
H            -2.84031350    2.52851966   -0.34191388
H            -1.19783816    1.96605318   -0.68654091
H            -0.59632783    1.28064143   -2.94815231
H            -0.93784926    1.60192863   -5.37623560
H            -3.07988398    2.54398962   -6.23537985
H            -4.80670279    3.13126794   -4.62011557
H            -4.48131161    2.81531997   -2.17178893
O             0.00000000    0.00000000    0.00000000
C             1.40318413    0.00000000    0.00000000
C             2.13235159    1.06399566   -0.48088801
C             3.52065426    1.04703016   -0.47322061
C             4.20268390   -0.04649557    0.02101071
C             3.46934055   -1.10884305    0.50115195
C             2.10259292   -1.08536947    0.49054485
H             1.58990808    1.90973705   -0.86312668
H             4.07861212    1.87926038   -0.84937323
H             5.28298349   -0.09697453    0.04384390
H             3.97382475   -1.97644602    0.89326618
H             1.54177846   -1.94791440    0.88039016



