%chk=rp_10_1.chk
%mem=300GB
%nprocshared=68
#p opt=(calcfc,ts,noeigen,maxstep=5) freq b3lyp def2svp em=gd3bj  

Freeze index  [11, 18]  [18, 19]  [3, 19]  [3, 33]  [3, 28]  [3, 21] // Local index  3  18  20  33  (20,)  [11, 18]  [18, 19]

0 1
Fe            2.04816748   -5.08370074   -1.77422919
C            -2.95393350   -2.43027428    1.99250425
Pd           -1.08640648   -4.01227748    0.56344070
C            -0.66133350   -6.54822134   -0.75870958
H             3.30090075   -6.75786705   -3.69329310
H             0.70048737   -6.08981778   -4.05456825
H             0.41557664   -3.47017199   -3.40216385
C            -0.04959626   -1.41634639   -0.08889939
O            -3.77726221   -2.11930666    2.82818863
C             0.70441060   -5.98089485   -0.55728872
O             0.77247333   -2.05623150   -0.82102533
C             2.24700614   -4.44427994    0.19535323
C             2.91691253   -5.68798910    0.01371428
C             1.95585047   -6.65006927   -0.42105038
H             2.71724358   -3.50393498    0.47639347
H             3.98077991   -5.86925310    0.15828050
H             2.14701787   -7.70008914   -0.63866679
H             0.56435914   -3.34582625   -0.61998057
C             0.85944208   -4.59104132   -0.16131714
C            -2.10139565   -1.36205815    1.27391369
O            -2.78383961   -3.66789262    1.57530892
C             2.62299583   -3.53554198   -3.00590039
C             3.56392886   -4.60564509   -3.09847420
C             2.86750618   -5.77044330   -3.54402430
C             1.49496098   -5.41754917   -3.73412638
C             1.34452611   -4.03689123   -3.40189220
H             2.82390263   -2.52667558   -2.65384370
N            -0.97027003   -2.02613046    0.62563575
H            -1.74309920   -0.64479446    2.02971017
H            -1.12842548   -6.15265303   -1.67203778
H            -0.65824711   -7.65135194   -0.82340776
H             4.60265919   -4.55296029   -2.84711472
N            -1.49208684   -6.10203777    0.36897304
C            -0.96010808   -6.47359480    1.65132113
C            -2.88141049   -6.36312874    0.20293115
H            -1.12784890   -7.52306816    1.92352324
H             0.13565839   -6.23409475    1.62483236
H            -1.38214943   -5.76570576    2.41054527
H            -3.12385565   -6.99450237   -0.66420196
H            -3.31274935   -6.79650482    1.13458623
H            -3.39696310   -5.37249363    0.06310522
C            -2.97653265   -0.61147503    0.28337279
C            -3.09196164    0.86289662    0.62291034
C            -1.78242759    1.56935631    0.63083921
C            -3.82110348    0.94032384    1.95231440
H            -2.65065124   -0.74055921   -0.77849357
H            -4.00163674   -1.04083588    0.32973607
H            -3.74140775    1.35546916   -0.12872444
H            -1.53482976    1.92741953   -0.39908001
H            -1.88809013    2.48384734    1.26430355
H            -0.94110038    0.99609285    0.99846882
H            -3.56568304    0.05008796    2.58392667
H            -3.55193433    1.86562828    2.48539486
H            -4.92812458    0.90618934    1.73536648
O             0.00000000    0.00000000    0.00000000
C             2.40555702    0.00000000    0.00000000
C             1.12477966    0.52130153   -0.61737697
C             1.12396929    0.27664986   -2.11137825
C             1.09532837    2.02004897   -0.39658114
H             2.54491719    0.56794455    0.96075155
H             3.25050003    0.17799415   -0.69342863
H             2.26843548   -1.07921777    0.24709015
H             2.19866110    0.17369322   -2.41987076
H             0.73905390    1.16111865   -2.65811973
H             0.63147211   -0.66830780   -2.38919460
H             1.99127256    2.52634380   -0.82600483
H             0.98932583    2.18168927    0.69204523
H             0.15669605    2.38619289   -0.86248668



