%chk=rp_14_1.chk
%mem=300GB
%nprocshared=68
#p opt=(calcfc,ts,noeigen,maxstep=5) freq b3lyp def2svp em=gd3bj  

Freeze index  [11, 18]  [18, 19]  [3, 19]  [3, 45]  [3, 28]  [3, 21] // Local index  3  18  20  45  (20,)  [11, 18]  [18, 19]

0 1
Fe            2.04817892   -5.11991592   -1.66682908
C            -2.95391782   -2.38782650    2.04323990
Pd           -1.08638620   -3.99954992    0.64777982
C            -0.66131137   -6.56275187   -0.62070676
H             3.30090375   -6.83409146   -3.55024707
H             0.70050108   -6.17380048   -3.92548352
H             0.41558426   -3.54101555   -3.32836361
C            -0.04959626   -1.41790477   -0.05904465
O            -3.77724404   -2.05934322    2.87220504
C             0.70444019   -5.99129811   -0.43127074
O             0.77246427   -2.07306080   -0.77754571
C             2.24701931   -4.43918669    0.28885564
C             2.91693035   -5.68644786    0.13342293
C             1.95588796   -6.65746316   -0.28098006
H             2.71726358   -3.49313912    0.55004610
H             3.98079030   -5.86461933    0.28177353
H             2.14704636   -7.71182741   -0.47645964
H             0.56438037   -3.35814488   -0.54942305
C             0.85945292   -4.59341802   -0.06463535
C            -2.10137206   -1.33495705    1.30231424
O            -2.78381943   -3.63394276    1.65219853
C             2.62299634   -3.59802217   -2.93080732
C             3.56393299   -4.66983186   -3.00084897
C             2.86751069   -5.84374998   -3.42177925
C             1.49496366   -5.49493726   -3.61925889
C             1.34453008   -4.10760404   -3.31616982
H             2.82389102   -2.58196966   -2.60008690
N            -0.97026017   -2.01252983    0.66816670
H            -1.74308659   -0.60193072    2.04285502
H            -1.12839985   -6.18648858   -1.54214481
H            -0.65822817   -7.66700955   -0.66216825
Si            5.37928116   -4.56852573   -2.56360390
C             5.91474695   -6.24218449   -1.99806194
C             6.27090264   -3.99610823   -4.08883139
C             5.64502079   -3.36281402   -1.15388459
H             5.04401913   -6.75270986   -1.50159471
H             6.25420120   -6.89075110   -2.81822851
H             6.73586864   -6.21868112   -1.24710614
H             6.50617046   -2.90556073   -3.99318165
H             7.21968497   -4.51546292   -4.25619473
H             5.65773889   -4.10494787   -5.01422309
H             4.78358631   -2.68813767   -1.07367129
H             6.60303691   -2.82942985   -1.38841836
H             5.81561423   -3.87304872   -0.19228689
N            -1.49205668   -6.09293927    0.49734896
C            -0.96007221   -6.43743235    1.78722767
C            -2.88138504   -6.35747223    0.33683906
H            -1.12779306   -7.48094904    2.08145257
H             0.13569671   -6.19854219    1.75569586
H            -1.38211762   -5.71371590    2.53139064
H            -3.12381798   -7.00695517   -0.51680580
H            -3.31270119   -6.77116075    1.27741747
H            -3.39694005   -5.37000959    0.17620086
C            -2.97652245   -0.60539586    0.29620647
C            -3.64398438   -1.65976477   -0.56427019
C            -3.99580706    0.26146803    1.00019848
C            -4.89411266    0.98871342    0.05598702
H            -4.12096476   -2.37500292    0.13444951
H            -4.35902534   -1.21478739   -1.28065025
H            -2.82390045   -2.15077251   -1.15202679
H            -2.31646266    0.04984278   -0.28912445
H            -3.43003427    1.01583000    1.58069060
H            -4.58906423   -0.31613481    1.74525356
H            -5.55669717    1.64401077    0.65896101
H            -4.28472576    1.67474761   -0.57565176
H            -5.49941279    0.32836472   -0.58827268
O             0.00000000    0.00000000    0.00000000
C             2.40555702   -0.00000000    0.00000000
C             1.12477966    0.50818095   -0.62822107
C             1.12396929    0.23211277   -2.11673732
C             1.09532837    2.01124686   -0.43904501
H             2.54491719    0.58805654    0.94857475
H             3.25050003    0.16334774   -0.69702418
H             2.26843548   -1.07377341    0.26976880
H             2.19866110    0.12268066   -2.42299263
H             0.73905390    1.10486833   -2.68198863
H             0.63147211   -0.71848735   -2.37458672
H             1.99127256    2.50838364   -0.87903840
H             0.98932583    2.19578296    0.64593489
H             0.15669605    2.36749534   -0.91255991



