%chk=rp_24_1.chk
%mem=300GB
%nprocshared=68
#p opt=(calcfc,ts,noeigen,maxstep=5) freq b3lyp def2svp em=gd3bj  

Freeze index  [11, 18]  [18, 19]  [3, 19]  [3, 33]  [3, 28]  [3, 21] // Local index  3  18  20  33  (20,)  [11, 18]  [18, 19]

0 1
Fe            0.15230312   -0.08688051   -5.75813430
C            -4.18361355    0.85668220   -0.60455471
Pd           -2.81255716    0.54076759   -3.06483891
C            -2.80886458    1.23065662   -5.87264567
H             1.43409311    0.38322200   -8.24630999
H             0.39610232    2.49385805   -6.90215845
H             0.95684135    2.16001751   -4.26711434
C            -0.60067746    0.14671122   -1.27830450
O            -5.09567305    0.86804064    0.19605391
C            -1.86339813    0.08195385   -5.75315964
O             0.09603903    0.07654900   -2.34175565
C            -0.74433293   -1.60802810   -4.65821457
C            -0.77166007   -1.92529965   -6.04644771
C            -1.49351096   -0.89573549   -6.72258097
H            -0.22757172   -2.17521634   -3.88645649
H            -0.30395730   -2.78979835   -6.51492995
H            -1.70069273   -0.84790702   -7.79087122
H            -0.73576170    0.13434185   -3.36719670
C            -1.41354005   -0.35146147   -4.44079281
C            -2.71834813    0.69529777   -0.14491810
O            -4.35507030    1.06361093   -1.89392030
C             2.00172710    0.28918099   -4.93203832
C             2.15671562   -0.29196082   -6.22715548
C             1.51201999    0.56023872   -7.17498952
C             0.96389074    1.67386349   -6.46510127
C             1.26692843    1.50610159   -5.07973247
H             2.33905432   -0.13394924   -3.98902112
N            -1.90076889    0.34422306   -1.30638679
H            -2.68209178   -0.10942207    0.60686058
H            -2.31237439    2.18363106   -5.63992467
H            -3.25445543    1.31154547   -6.88061327
H             2.64260593   -1.21986112   -6.44581045
N            -3.85820728    1.04184248   -4.86066437
C            -4.54853199   -0.21280790   -4.98212594
C            -4.70522847    2.17259731   -4.68761732
H            -5.29621457   -0.24163968   -5.78448277
H            -3.76156265   -0.99752694   -5.13595465
H            -4.99087965   -0.45372587   -3.98115873
H            -4.55968318    2.96686102   -5.43412338
H            -5.77426317    1.85978355   -4.65330377
H            -4.48460257    2.60789260   -3.67344932
C            -2.26001790    1.98482393    0.51648723
C            -2.51915018    3.12021328   -0.40909111
C            -1.53804045    3.48738927   -1.30694763
C            -1.72278510    4.53792045   -2.19433012
C            -2.89815067    5.25481187   -2.21014552
C            -3.87375104    4.87544245   -1.30387712
C            -3.69605406    3.83246781   -0.41965264
H            -2.84025864    2.09788845    1.45241433
H            -1.19779776    1.91486575    0.81863031
H            -0.59633371    2.93358126   -1.31372441
H            -0.93787621    4.80799376   -2.89023258
H            -3.07990486    6.08299862   -2.88947792
H            -4.80668447    5.42762087   -1.30059124
H            -4.48127883    3.54349917    0.29446505
O             0.00000000    0.00000000    0.00000000
C             1.40318413   -0.00000000    0.00000000
C             2.13235159    1.10999138    0.36229709
C             3.52065426    1.09229275    0.35651994
C             4.20268390   -0.04850309   -0.01583471
C             3.46934055   -1.15677379   -0.37757195
C             2.10259292   -1.13228690   -0.36957749
H             1.58990808    1.99228934    0.65028184
H             4.07861212    1.96050929    0.63988890
H             5.28298349   -0.10117670   -0.03300944
H             3.97382475   -2.06187496   -0.67300446
H             1.54177846   -2.03212291   -0.66327505



