%chk=rp_22_1.chk
%mem=300GB
%nprocshared=68
#p opt=(calcfc,ts,noeigen,maxstep=5) freq b3lyp def2svp em=gd3bj  

Freeze index  [11, 18]  [18, 19]  [3, 19]  [3, 33]  [3, 28]  [3, 21] // Local index  3  18  20  33  (20,)  [11, 18]  [18, 19]

0 1
Fe            2.04817535   -5.14672486   -1.58212874
C            -2.95392160   -2.35376755    2.08233727
Pd           -1.08640091   -3.98830596    0.71367199
C            -0.66133137   -6.57208736   -0.51233768
H             3.30089920   -6.89174623   -3.43700320
H             0.70049016   -6.23774049   -3.82309197
H             0.41558548   -3.59545004   -3.26948372
C            -0.04959626   -1.41868547   -0.03566178
O            -3.77725738   -2.01164146    2.90577002
C             0.70441579   -5.99760439   -0.33236786
O             0.77247092   -2.08560885   -0.74324705
C             2.24701171   -4.43381172    0.36206684
C             2.91691650   -5.68346753    0.22722993
C             1.95586209   -6.66118721   -0.17110006
H             2.71725361   -3.48357926    0.60759582
H             3.98078886   -5.85917144    0.37850010
H             2.14702295   -7.71864116   -0.34915023
H             0.56436036   -3.36673799   -0.49393784
C             0.85945230   -4.59386048    0.01114906
C            -2.10138227   -1.31327460    1.32415447
O            -2.78383471   -3.60617995    1.71189849
C             2.62299211   -3.64589189   -2.87104968
C             3.56392882   -4.71871946   -2.92339558
C             2.86750129   -5.89941780   -3.32488729
C             1.49496263   -5.55391554   -3.52811428
C             1.34452128   -4.16175558   -3.24794264
H             2.82390230   -2.62452799   -2.55712396
N            -0.97026614   -2.00121685    0.70125974
H            -2.71743804   -0.81144682    0.60752707
H            -1.12842847   -6.21108519   -1.43987474
H            -0.65824205   -7.67687774   -0.53558470
H             4.60265502   -4.65663624   -2.67417995
N            -1.49207794   -6.08388455    0.59779428
C            -0.96010302   -6.40704010    1.89317911
C            -2.88140548   -6.35103385    0.44166706
H            -1.12783885   -7.44555124    2.20459746
H             0.13566438   -6.16870505    1.85772182
H            -1.38213866   -5.67114682    2.62530182
H            -3.12384919   -7.01450833   -0.40114108
H            -3.31273576   -6.74912621    1.38894426
H            -3.39695843   -5.36634062    0.26475067
C            -1.60711194   -0.28537408    2.32890061
C            -2.77846461    0.61881559    2.65752393
C            -1.06565858   -0.96250801    3.56758630
C            -0.58151891    0.00452289    4.59609132
H            -3.61424680   -0.04806929    2.94738113
H            -2.52296732    1.35564946    3.44127992
H            -3.01476272    1.18145786    1.71588526
H            -0.78292165    0.26191621    1.85053782
H            -0.20291976   -1.57783774    3.24636340
H            -1.80145498   -1.67334846    4.00802387
H            -0.14510524   -0.58240657    5.43099738
H             0.25994163    0.59957999    4.17322817
H            -1.36264720    0.68356117    4.97853605
O             0.00000000    0.00000000    0.00000000
C             2.40555702   -0.00000000    0.00000000
C             1.12477966    0.49775536   -0.63651331
C             1.12396929    0.19718578   -2.12027616
C             1.09532837    2.00373567   -0.47214173
H             2.54491719    0.60361435    0.93875144
H             3.25050003    0.15183475   -0.69962232
H             2.26843548   -1.06918021    0.28743382
H             2.19866110    0.08271977   -2.42468581
H             0.73905390    1.06050429   -2.69983845
H             0.63147211   -0.75753593   -2.36241941
H             1.99127256    2.49355138   -0.92027087
H             0.98932583    2.20613311    0.60964856
H             0.15669605    2.35212961   -0.95146522



