%chk=rp_28_1.chk
%mem=300GB
%nprocshared=68
#p opt=(calcfc,ts,noeigen,maxstep=5) freq b3lyp def2svp em=gd3bj  

Freeze index  [11, 18]  [18, 19]  [3, 19]  [3, 33]  [3, 28]  [3, 21] // Local index  3  18  20  33  (20,)  [11, 18]  [18, 19]

0 1
Fe            0.25079092    4.29210113   -3.83429326
C            -3.69936380    1.89298331    1.15473527
Pd           -2.43654724    3.27248694   -0.97478026
C            -2.15518658    5.82893981   -2.29582345
H             1.67214396    6.19330058   -5.38999263
H             1.30608650    6.68858980   -2.75188298
H             1.67536402    4.35879504   -1.40836120
C            -0.49636088    1.19229204   -0.59030973
O            -4.58154023    1.48932788    1.88397850
C            -1.61375550    4.82959743   -3.26321943
O             0.16896130    1.80659717   -1.48542893
C            -1.09694518    2.71951077   -4.02985234
C            -1.18889577    3.58684836   -5.15585424
C            -1.54167375    4.88795818   -4.68583989
H            -0.79858366    1.67325884   -4.05590649
H            -1.00040114    3.31233350   -6.19252863
H            -1.69925239    5.77455349   -5.29869081
H            -0.58042304    2.80242456   -1.92532941
C            -1.35016230    3.46868303   -2.82623150
C            -2.36659743    1.12636177    1.01214888
O            -3.76873462    3.03729618    0.50633877
C             2.10637348    3.49231059   -3.43256174
C             2.10411802    4.08772351   -4.73045288
C             1.77620090    5.47010559   -4.58297036
C             1.58261206    5.73101438   -3.19048749
C             1.78696704    4.50908787   -2.48030058
H             2.27466162    2.44297983   -3.20298152
N            -1.67086448    1.61699693   -0.17778071
H            -2.59801480    0.05429779    0.90626396
H            -1.39414721    6.12740408   -1.56058907
H            -2.53063836    6.74170607   -2.79281364
H             2.28456935    3.58048271   -5.65515452
N            -3.23459697    5.17187453   -1.54479914
C            -4.27568988    4.64630050   -2.38465435
C            -3.69470859    5.91640666   -0.42233616
H            -4.97699752    5.40119322   -2.76138481
H            -3.76623009    4.11197905   -3.22948983
H            -4.79377977    3.83383043   -1.81271070
H            -3.29377714    6.93855123   -0.36075998
H            -4.80858269    5.93112116   -0.39181300
H            -3.37387763    5.36375148    0.50413197
C            -1.54777632    1.31312435    2.27905123
C            -1.05915980    2.73365145    2.25874955
C            -2.30137805    0.93154200    3.49728619
H            -1.74292002    3.41404277    1.67431376
H            -0.09298714    2.76791728    1.67729079
H            -0.90374247    3.17332850    3.24355224
H            -0.65523245    0.64487295    2.18729718
H            -2.60513061    1.76970800    4.14744870
H            -3.19560650    0.32099099    3.21144711
H            -1.68931503    0.25279062    4.15218569
O             0.00000000    0.00000000    0.00000000
C             1.41083033   -0.00000000    0.00000000
C             1.94061031    1.15105430    0.76645259
C             2.20995799    2.38533628    0.18160675
C             2.70552417    3.45044331    0.91597808
C             2.94592662    3.30690375    2.26349127
C             2.68645864    2.09201096    2.86577302
C             2.19263547    1.03705286    2.12436564
H             1.79393422    0.03180332   -1.03959414
H             1.72408576   -0.94489161    0.49421752
H             2.01310165    2.47553353   -0.88078652
H             2.90331403    4.40076987    0.42061041
H             3.33765042    4.16492625    2.81981110
H             2.87529943    1.97324921    3.93335112
H             1.98003595    0.06237444    2.58666325



