%chk=rp_25_2.chk
%mem=300GB
%nprocshared=68
#p opt=(calcfc,ts,noeigen,maxstep=5) freq b3lyp def2svp em=gd3bj  

Freeze index  [11, 18]  [18, 19]  [3, 19]  [3, 32]  [3, 28]  [3, 21] // Local index  3  18  20  32  (20,)  [11, 18]  [18, 19]

-1 1
Fe           -2.01533569   -4.93828608    2.40221560
C            -2.36518894   -1.40174829   -3.39608693
Pd           -2.55542662   -3.21937573   -1.22983839
C            -3.05848228   -5.96889896   -0.49038918
H            -1.73598965   -7.19229632    4.10410214
H            -0.49456369   -7.22247666    1.69643861
H             0.55422403   -4.75525388    1.26956871
C            -0.78182627   -1.30296742   -0.03773033
O            -2.66509597   -0.80316961   -4.40837465
C            -3.19362736   -5.19405756    0.77808391
O            -0.75183329   -2.11388682    0.94346909
C            -3.24756057   -3.29362339    2.07911411
C            -3.96448829   -4.31637497    2.76362865
C            -3.96057745   -5.48533344    1.94403034
H            -3.03434331   -2.29891088    2.46572327
H            -4.41709786   -4.23037905    3.75020998
H            -4.43256416   -6.43876527    2.17778963
H            -1.60349321   -3.08956613    0.67978816
C            -2.74407218   -3.81300987    0.83378903
C            -1.37394204   -0.80085998   -2.37595257
O            -2.78248443   -2.62261844   -3.13144875
C            -0.28286837   -4.26877873    3.29357630
C            -1.03042769   -5.06052842    4.21735191
C            -1.19249737   -6.36320626    3.65426786
C            -0.53754671   -6.37858792    2.38330265
C             0.02443190   -5.08472573    2.16113427
H            -0.02705000   -3.21765670    3.40220782
N            -1.49217846   -1.54027478   -1.11898822
H            -1.63862251    0.25793019   -2.22433181
H            -2.68567810   -6.97159929   -0.46762967
H            -1.43465440   -4.72144346    5.16959207
O            -3.42458900   -5.37538168   -1.72736748
C             0.03099600   -0.86180689   -2.95287214
C             0.31777652   -2.25828645   -3.37779044
C             0.88669026   -3.12888444   -2.47117230
C             1.17663107   -4.44268100   -2.81038535
C             0.90527889   -4.92640549   -4.07056076
C             0.33450314   -4.04188369   -4.96993162
C             0.04410365   -2.73527334   -4.63877905
H             0.06079488   -0.17173500   -3.81793977
H             0.77088410   -0.47690693   -2.22561950
H             1.11138255   -2.76850065   -1.46460080
H             1.62339949   -5.10787414   -2.08154469
H             1.11767397   -5.94798873   -4.37334195
H             0.11312267   -4.40364805   -5.96763022
H            -0.40944067   -2.04483849   -5.36517549
C             0.00000000    0.00000000    0.00000000
C             1.39649541    0.00000000    0.00000000
C             1.83794744    1.29945845   -0.17580619
C             0.72440946    2.11928139   -0.28661675
C            -0.39999311    1.31727025   -0.18389896
Fe            0.70745987    1.12310292    1.20772969
C             0.81879968    2.47643613    2.38944380
C             1.85361984    1.57194252    2.50532896
C             1.30541203    0.30049085    2.66970226
C            -0.08349837    0.40713897    2.61229040
C            -0.37901765    1.75554094    2.47221105
H             1.98378584   -0.85814158   -0.08240383
H             2.80791523    1.59168591   -0.41139438
H             0.75679286    3.11061454   -0.61005427
H            -1.36679357    1.62298853   -0.42972395
H             0.85911842    3.51553054    2.42371615
H             2.85605783    1.79991948    2.67366838
H             1.83670379   -0.53255583    2.99360372
H            -0.74279598   -0.32232726    2.94937790
H            -1.30934428    2.20567671    2.61084577



