%chk=rp_20_2.chk
%mem=300GB
%nprocshared=68
#p opt=(calcfc,ts,noeigen,maxstep=5) freq b3lyp def2svp em=gd3bj  

Freeze index  [11, 18]  [18, 19]  [3, 19]  [3, 32]  [3, 28]  [3, 21] // Local index  3  18  20  32  (20,)  [11, 18]  [18, 19]

-1 1
Fe           -3.99833622    4.26354428   -0.23314764
C             2.29337571    2.84803743   -2.39199401
Pd           -0.25153514    3.91271497   -1.74197792
C            -2.30640986    5.78072089   -2.54681362
H            -6.68292432    5.17726133   -0.34750755
H            -5.54238052    4.21482470   -2.60842663
H            -4.08282930    2.02629675   -1.93802642
C            -0.50737150    1.35641098   -0.46165292
O             3.46959639    2.81295926   -2.68902470
C            -2.62079365    5.44465636   -1.12699275
O            -1.69589154    1.73381208   -0.20427680
C            -2.27354718    4.43939174    0.91656561
C            -3.11536063    5.57020370    1.11946945
C            -3.30490002    6.21386839   -0.14069427
H            -1.98369259    3.71775306    1.67788160
H            -3.55708857    5.87791614    2.06593097
H            -3.89033000    7.11397224   -0.32381497
H            -1.81676385    2.98167496   -0.62263413
C            -1.95114085    4.32716377   -0.48256894
C             1.61304790    1.65925709   -1.67905207
O             1.49684857    3.84339917   -2.72287123
C            -4.82669449    2.41510006    0.14271060
C            -5.67205375    3.44167313    0.66289551
C            -6.05731088    4.28932335   -0.42031207
C            -5.45475361    3.78130049   -1.61336488
C            -4.69496898    2.62341222   -1.26508264
H            -4.32931274    1.63563460    0.71467238
N             0.33934410    2.11576384   -1.12232247
H             2.28187172    1.31468344   -0.87405580
H            -3.09806797    5.99879298   -3.23284940
H            -5.94818848    3.57468824    1.70750926
O            -0.95675049    5.81101369   -2.98715958
C             1.43606635    0.52052308   -2.67019344
C             0.71439320    1.08571749   -3.87740613
C             2.77374436   -0.07189866   -3.05187466
C             2.65781061   -1.18565450   -4.03852277
H             1.28810588    1.97958627   -4.19224916
H             0.60856839    0.33552181   -4.68269598
H            -0.31395401    1.36531034   -3.52612125
H             0.84909149   -0.25850648   -2.16401481
H             3.21920442   -0.48320822   -2.12530960
H             3.48445753    0.70543958   -3.41422666
H             3.67565228   -1.59649277   -4.20355766
H             2.06677464   -2.01538614   -3.58778168
H             2.20867653   -0.88885144   -5.00169764
C             0.00000000    0.00000000    0.00000000
H             1.11123978    0.00000000    0.00000000
H            -0.34606400   -0.15580979    1.05193760
H            -0.40221157   -0.80178389   -0.65752555



