%chk=rp_23_2.chk
%mem=300GB
%nprocshared=68
#p opt=(calcfc,ts,noeigen,maxstep=5) freq b3lyp def2svp em=gd3bj  

Freeze index  [11, 18]  [18, 19]  [3, 19]  [3, 32]  [3, 28]  [3, 21] // Local index  3  18  20  32  (20,)  [11, 18]  [18, 19]

-1 1
Fe           -2.11005401    4.44556585    2.99524172
C            -0.19531549    2.75962043   -3.30881836
Pd           -1.09637917    3.94796113   -0.89873056
C            -2.77557414    6.01111623    0.23415224
H            -3.71699413    5.55143119    5.05675076
H            -4.92604558    4.68530558    2.79248179
H            -3.74349860    2.35529596    2.05627556
C            -0.49636088    1.32631712    0.10444509
O             0.27078763    2.66468637   -4.42537669
C            -1.87190422    5.59138762    1.34540196
O            -0.96614031    1.76561023    1.20334043
C            -0.14518308    4.41239784    2.31269487
C            -0.37287320    5.58087066    3.09461224
C            -1.42046418    6.32981081    2.47828247
H             0.55868540    3.61662626    2.54869910
H             0.14490873    5.84627351    4.01496905
H            -1.82443293    7.28004694    2.82513638
H            -1.24245088    3.04696787    1.03429183
C            -1.07367721    4.38408743    1.21215202
C            -0.15966454    1.57094587   -2.32388533
O            -0.83335437    3.83061633   -2.88388662
C            -2.49844763    2.63665935    3.90145067
C            -2.48717515    3.67767558    4.87881039
C            -3.49077614    4.62985483    4.52322708
C            -4.12835925    4.17259908    3.32783824
C            -3.51524484    2.94121623    2.94437363
H            -1.82631468    1.78315092    3.85829944
N            -0.43484379    2.07222550   -0.97716019
H             0.84488874    1.12033005   -2.36746632
H            -3.77237802    6.33550923    0.44876841
H            -1.81014395    3.75025537    5.72822201
O            -2.31248416    5.97988032   -1.10785528
C            -1.16932654    0.52576257   -2.76950413
C            -2.49580833    1.17763051   -2.93822882
C            -3.35493877    1.23282086   -1.86007805
C            -4.60453082    1.82795994   -1.95765739
C            -5.03341259    2.38745400   -3.14031977
C            -4.16113577    2.32486565   -4.21374772
C            -2.91822166    1.73482492   -4.12296802
H            -0.80876703    0.10957889   -3.72982552
H            -1.19775911   -0.32095913   -2.05765250
H            -3.03726073    0.79570325   -0.91057388
H            -5.26198548    1.85925878   -1.09738627
H            -6.00396052    2.86196991   -3.25560984
H            -4.48033971    2.75989401   -5.15403727
H            -2.23673954    1.69319406   -4.98546642
O             0.00000000    0.00000000    0.00000000
C             1.41083033   -0.00000000    0.00000000
C             1.94061031    0.59531875    1.24818716
C             2.20995799    1.95488618    1.37885105
C             2.70552417    2.49286023    2.55543005
C             2.94592662    1.67876982    3.63878236
C             2.68645864    0.32691034    3.53302908
C             2.19263547   -0.19874279    2.35561230
H             1.79393422    0.56029062   -0.87626585
H             1.72408576   -1.06463986   -0.06010892
H             2.01310165    2.57700123    0.51294814
H             2.90331403    3.56275607    2.61733791
H             3.33765042    2.13023044    4.55632128
H             2.87529943   -0.32238771    4.38873895
H             1.98003595   -1.27259202    2.25282642



