%chk=rp_26_1.chk
%mem=300GB
%nprocshared=68
#p opt=(calcfc,ts,noeigen,maxstep=5) freq b3lyp def2svp em=gd3bj  

Freeze index  [11, 18]  [18, 19]  [3, 19]  [3, 33]  [3, 28]  [3, 21] // Local index  3  18  20  33  (20,)  [11, 18]  [18, 19]

0 1
Fe            2.04813101   -4.98685603    2.03058828
C            -2.95392642   -0.50556708    3.10174295
Pd           -1.08640541   -2.63732762    3.07578597
C            -0.66136532   -5.41397982    3.76081032
H             3.30084316   -7.51174402    1.69798638
H             0.70044196   -7.24947079    0.98523335
H             0.41553261   -4.85288077   -0.25757883
C            -0.04959626   -1.12128045    0.86986802
O            -3.77724409    0.28030756    3.52303402
C             0.70438185   -4.85520205    3.53677658
O             0.77245312   -2.08541833    0.74377721
C             2.24698435   -3.20480492    3.08531007
C             2.91688476   -4.25792906    3.77143711
C             1.95582117   -5.26713017    4.08145691
H             2.71724095   -2.31355921    2.67433906
H             3.98076025   -4.29833099    3.99972881
H             2.14698877   -6.19872605    4.61252221
H             0.56434153   -2.91990335    1.74732608
C             0.85942306   -3.55074224    2.91477894
C            -2.10138484   -0.17939975    1.85632208
O            -2.78385111   -1.70986036    3.60714475
C             2.62295139   -4.63990571    0.08291491
C             3.56389512   -5.50389912    0.72106722
C             2.86744897   -6.67229201    1.15704262
C             1.49491216   -6.53326559    0.78108744
C             1.34447271   -5.27784034    0.11736720
H             2.82387657   -3.65030494   -0.32009417
N            -0.97027566   -1.10623669    1.80911478
H            -1.74307852    0.85845116    1.94901743
H            -1.12846124   -5.72115570    2.81409768
H            -0.65828847   -6.28429092    4.44172615
H             4.60261320   -5.29817746    0.87478692
N            -1.49210042   -4.33358050    4.31173829
C            -3.51438364   -4.31861539    5.51813483
C            -2.37098111   -4.70180413    6.46884602
C            -1.20845931   -4.08218877    5.68228727
C            -2.88555015   -4.71426360    4.19897963
H            -4.43939602   -4.83022152    5.74512796
H            -3.56844104   -3.21126217    5.52119954
H            -2.51342651   -4.17966225    7.41219193
H            -2.25167243   -5.79097097    6.54532542
H            -0.23733405   -4.41007614    6.04313862
H            -1.31868425   -2.97186590    5.85810793
H            -3.00385027   -5.78109401    3.96319278
H            -3.38821964   -4.13290868    3.40010767
C            -2.97652401   -0.27130964    0.61692754
C            -3.24546648   -1.73325638    0.39912673
C            -4.18865375    0.57586496    0.72010239
H            -3.20097375   -2.32502886    1.35821899
H            -2.40110878   -2.16146482   -0.21443287
H            -4.19423263   -1.95128239   -0.09037355
H            -2.35847664    0.09264047   -0.24165557
H            -5.13912674    0.02874794    0.84158441
H            -4.06098530    1.31690070    1.54996974
H            -4.32106596    1.20200372   -0.20438484
O             0.00000000    0.00000000    0.00000000
C             2.40555702    0.00000000   -0.00000000
C             1.12477966   -0.01717677   -0.80784563
C             1.12396929   -1.18861287   -1.76681993
C             1.09532837    1.25313456   -1.63325693
H             2.54491719    1.06134889    0.34517111
H             3.25050003   -0.32500359   -0.63788545
H             2.26843548   -0.64620510    0.89899026
H             2.19866110   -1.46983782   -1.93016078
H             0.73905390   -0.88664605   -2.76182110
H             0.63147211   -2.08119433   -1.35037636
H             1.99127256    1.34898415   -2.29018313
H             0.98932583    2.09424462   -0.92349020
H             0.15669605    1.21972402   -2.22487597



