%chk=rp_27_1.chk
%mem=300GB
%nprocshared=68
#p opt=(calcfc,ts,noeigen,maxstep=5) freq b3lyp def2svp em=gd3bj  

Freeze index  [11, 18]  [18, 19]  [3, 19]  [3, 33]  [3, 28]  [3, 21] // Local index  3  18  20  33  (20,)  [11, 18]  [18, 19]

0 1
Fe            2.04822041   -5.09949084   -1.72824170
C            -2.95393415   -2.41221910    2.01433957
Pd           -1.08638541   -4.00703585    0.59963342
C            -0.66127452   -6.55480755   -0.69956262
H             3.30098823   -6.79089906   -3.63211022
H             0.70057652   -6.12615962   -3.99941449
H             0.41563455   -3.50073142   -3.37068947
C            -0.04959626   -1.41709195   -0.07609612
O            -3.77727301   -2.09372577    2.84719238
C             0.70446374   -5.98567220   -0.50326760
O             0.77248926   -2.06355080   -0.80240811
C             2.24703970   -4.44230714    0.23549374
C             2.91695874   -5.68760962    0.06508277
C             1.95590553   -6.65357896   -0.36098352
H             2.71726771   -3.49946645    0.50803468
H             3.98083252   -5.86754577    0.21129492
H             2.14708194   -7.70553047   -0.56911361
H             0.56438877   -3.35127355   -0.58974449
C             0.85948322   -4.59229886   -0.11985205
C            -2.10139517   -1.35051669    1.28614253
O            -2.78382892   -3.65355306    1.60833898
C             2.62304116   -3.56250904   -2.97383708
C             3.56398546   -4.63339384   -3.05673842
C             2.86758027   -5.80217185   -3.49175420
C             1.49503195   -5.45102359   -3.68505340
C             1.34457314   -4.06742462   -3.36529281
H             2.82394119   -2.55050460   -2.63089509
N            -0.97025606   -2.02041075    0.64390743
H            -1.74310966   -0.62646143    2.03545039
H            -1.12837165   -6.16750313   -1.61643066
H            -0.65818041   -7.65848275   -0.75430746
H             4.60271729   -4.57843698   -2.80585006
N            -1.49203943   -6.09846836    0.42404020
C            -0.96007343   -6.45843877    1.70968896
C            -2.88135711   -6.36106179    0.26034831
H            -1.12780599   -7.50541149    1.99135397
H             0.13570373   -6.21917323    1.68105151
H            -1.38212261   -5.74372651    2.46248719
H            -3.12379073   -7.00023450   -0.60104669
H            -3.31269846   -6.78602132    1.19587903
H            -3.39691765   -5.37173431    0.11158029
C            -2.97653392   -0.60891888    0.28886889
C            -3.24544985   -1.57177982   -0.83257596
C            -4.18868213   -0.03589443    0.92129023
H            -3.20094235   -2.64689369   -0.49467831
H            -2.40108750   -1.49399769   -1.57672661
H            -4.19421404   -1.41629483   -1.34538949
H            -2.35849161    0.22817140   -0.12212607
H            -5.13914633   -0.52909842    0.65508206
H            -4.06102332   -0.01869192    2.03373274
H            -4.32110427    1.04254277    0.63205760
O             0.00000000    0.00000000    0.00000000
C             2.40555702    0.00000000   -0.00000000
C             1.12477966    0.51570095   -0.62206280
C             1.12396929    0.25755785   -2.11379214
C             1.09532837    2.01638254   -0.41482030
H             2.54491719    0.57660375    0.95557975
H             3.25050003    0.17172030   -0.69500887
H             2.26843548   -1.07694072    0.25683305
H             2.19866110    0.15181755   -2.42134163
H             0.73905390    1.13704958   -2.66850432
H             0.63147211   -0.68987187   -2.38305748
H             1.99127256    2.51877596   -0.84880188
H             0.98932583    2.18785426    0.67230086
H             0.15669605    2.37830108   -0.88401569



