%chk=rp_21_1.chk
%mem=300GB
%nprocshared=68
#p opt=(calcfc,ts,noeigen,maxstep=5) freq b3lyp def2svp em=gd3bj  

Freeze index  [11, 18]  [18, 19]  [3, 19]  [3, 35]  [3, 28]  [3, 21] // Local index  3  18  20  35  (20,)  [11, 18]  [18, 19]

0 1
Fe            2.04817177    5.26430202    1.13091143
C            -2.95391566    2.16478749   -2.27820100
Pd           -1.08639152    3.91160845   -1.05606514
C            -0.66131651    6.59178165   -0.05819997
H             3.30090146    7.16325495    2.82784947
H             0.70050273    6.54509855    3.26906328
H             0.41556683    3.86483351    2.94614659
C            -0.04959626    1.41645006   -0.08723213
O            -3.77724124    1.75271970   -3.06894740
C             0.70442705    6.00385895   -0.18779081
O             0.77246958    2.14208732    0.56000864
C             2.24702040    4.38584259   -0.74431746
C             2.91692843    5.64248294   -0.71810139
C             1.95587653    6.65100435   -0.40585109
H             2.71725803    3.41794401   -0.90671463
H             3.98080109    5.80444425   -0.88401178
H             2.14705681    7.71990039   -0.31996729
H             0.56437441    3.39685241    0.20079227
C             0.85946134    4.57567341   -0.40857272
C            -2.10138258    1.19379495   -1.43282158
O            -2.78381835    3.44456244   -2.01751557
C             2.62299354    3.88061401    2.54485264
C             3.56393893    4.95393268    2.50417962
C             2.86751342    6.16495243    2.80201658
C             1.49495361    5.83833748    3.03436751
C             1.34451426    4.42714579    2.87568362
H             2.82389468    2.83591982    2.32046174
N            -0.97026258    1.93304720   -0.87179414
H            -1.74309449    0.38843519   -2.09397309
H            -1.12840482    6.31237007    0.89707888
H            -0.65822038    7.69441976   -0.13063110
C             5.03951631    4.83544576    2.15913773
O             5.50968249    3.74882469    1.88545489
H             5.68351445    5.68501999    2.14924456
N            -1.49205741    6.00935691   -1.12193934
C            -0.96007670    6.21922146   -2.44042672
C            -2.88139029    6.28901587   -0.98952273
H            -1.12779744    7.22690636   -2.84052936
H             0.13568914    5.98485743   -2.38447630
H            -1.38212180    5.42275708   -3.10612864
H            -3.12382565    7.02293437   -0.20727151
H            -3.31271445    6.60366508   -1.96768676
H            -3.39695262    5.32333465   -0.72806801
C            -2.97652506    0.57167923   -0.35694548
C            -3.64398257    1.70902671    0.39042358
C            -3.99581593   -0.36305400   -0.96795045
C            -4.89410762   -0.98923755    0.04612492
H            -4.12097736    2.34852991   -0.37820872
H            -4.35901272    1.34016255    1.14881076
H            -2.82389886    2.25793125    0.92450396
H            -2.31645508   -0.01982137    0.29272814
H            -3.43004339   -1.17316770   -1.46770036
H            -4.58907259    0.13478336   -1.76850156
H            -5.55669474   -1.70312131   -0.48618922
H            -4.28471570   -1.60660144    0.74502356
H            -5.49940293   -0.26607220    0.61898403
O             0.00000000    0.00000000    0.00000000
C             2.40555702    0.00000000    0.00000000
C             1.12477966   -0.44081029    0.67719708
C             1.12396929   -0.01297674    2.12938603
C             1.09532837   -1.95536513    0.64375588
H             2.54491719   -0.68258131   -0.88299904
H             3.25050003   -0.09072629    0.71013656
H             2.26843548    1.04029799   -0.37887284
H             2.19866110    0.12740077    2.42274904
H             0.73905390   -0.82290704    2.78147821
H             0.63147211    0.95911684    2.28800809
H             1.99127256   -2.40456661    1.13258836
H             0.98932583   -2.25061172   -0.41646316
H             0.15669605   -2.26097601    1.15142835



