%chk=rp_2_2.chk
%mem=300GB
%nprocshared=68
#p opt=(calcfc,ts,noeigen,maxstep=5) freq b3lyp def2svp em=gd3bj  

Freeze index  [11, 18]  [18, 19]  [3, 19]  [3, 32]  [3, 28]  [3, 21] // Local index  3  18  20  32  (20,)  [11, 18]  [18, 19]

-1 1
Fe            0.59061291    5.37332768    2.23548782
C            -3.88838693    1.58649461   -1.20666607
Pd           -2.39709629    3.55335325    0.18622970
C            -2.57054222    5.94893782    1.79583811
H             1.56026119    7.17667662    4.20086455
H            -0.60210817    5.65492212    4.79019105
H            -0.15932403    3.16327109    3.80784502
C            -0.50737150    1.39681933    0.31917069
O            -4.70103504    1.10183627   -1.96670937
C            -1.14995722    5.88719995    1.34219176
O             0.18398219    2.19973940    1.02526866
C             0.64654071    5.02643283    0.18507236
C             0.91479119    6.39840728    0.45766002
C            -0.21164259    6.94238931    1.14572211
H             1.33297916    4.32586624   -0.28648984
H             1.82876196    6.93425754    0.20641491
H            -0.32449580    7.97074547    1.48662336
H            -0.44715782    3.36085949    1.04085285
C            -0.63706090    4.67129072    0.73308200
C            -2.63715068    0.79705402   -0.76449483
O            -4.04615791    2.76498977   -0.64015168
C             1.81799095    3.99253327    3.14715929
C             2.37903224    5.29965364    3.27270904
C             1.43849778    6.12046397    3.96694899
C             0.29714031    5.31704674    4.27740114
C             0.53221274    4.00264783    3.77108301
H             2.26211505    3.14532774    2.63035076
N            -1.67840670    1.73291036   -0.17656469
H            -2.20457793    0.31415860   -1.65544048
H            -2.80960718    6.37013625    2.74996227
H             3.34117044    5.62324006    2.87934514
O            -3.60476696    5.44867951    0.96125811
C            -3.05513531   -0.29150602    0.21055447
C            -2.02847291   -1.38204728    0.16039472
C            -4.43164715   -0.75353167   -0.20499829
C            -3.14122894    0.21202748    1.62512925
H            -1.28176575   -1.22537715   -0.66532872
H            -2.47314168   -2.39135467   -0.02894160
H            -1.40065774   -1.38904273    1.09619326
H            -5.20240958   -0.22705231    0.40953099
H            -4.56451026   -1.82621462   -0.05495791
H            -4.65165460   -0.52453003   -1.26672308
H            -3.20019340    1.30980806    1.58861645
H            -4.05837555   -0.15608966    2.15406685
H            -2.26242565   -0.05722561    2.24069156
C             0.00000000    0.00000000    0.00000000
H             1.11123978    0.00000000   -0.00000000
H            -0.34606400   -0.68485910    0.81352162
H            -0.40221157   -0.33722108   -0.98055046



