%chk=rp_30_1.chk
%mem=300GB
%nprocshared=68
#p opt=(calcfc,ts,noeigen,maxstep=5) freq b3lyp def2svp em=gd3bj  

Freeze index  [11, 18]  [18, 19]  [3, 19]  [3, 33]  [3, 28]  [3, 21] // Local index  3  18  20  33  (20,)  [11, 18]  [18, 19]

0 1
Fe            2.04820111   -5.13396982   -1.62298527
C            -2.95394288   -2.37025774    2.06351952
Pd           -1.08639985   -3.99385338    0.68192038
C            -0.66130751   -6.56780886   -0.56459037
H             3.30095905   -6.86419048   -3.49165705
H             0.70054640   -6.20713605   -3.87255897
H             0.41562092   -3.56933414   -3.29796889
C            -0.04959626   -1.41835675   -0.04695051
O            -3.77727720   -2.03469394    2.88963891
C             0.70443692   -5.99476060   -0.38003783
O             0.77248396   -2.07963042   -0.75980827
C             2.24701480   -4.43653735    0.32681746
C             2.91692772   -5.68508160    0.18206525
C             1.95588436   -6.65960439   -0.22404835
H             2.71725232   -3.48828729    0.57990573
H             3.98080059   -5.86197208    0.33194440
H             2.14704896   -7.71561087   -0.41049489
H             0.56437736   -3.36270273   -0.52068718
C             0.85946207   -4.59379392   -0.02537267
C            -2.10139677   -1.32375903    1.31364013
O            -2.78384345   -3.61968116    1.68314098
C             2.62302467   -3.62293869   -2.89993033
C             3.56397630   -4.69531094   -2.96078653
C             2.86755094   -5.87277959   -3.37166991
C             1.49500629   -5.52568158   -3.57214755
C             1.34456510   -4.13579723   -3.28092328
H             2.82392678   -2.60409622   -2.57789205
N            -0.97026881   -2.00673398    0.68531414
H            -1.74311221   -0.58445349    2.04788751
H            -1.12838879   -6.19943573   -1.48922984
H            -0.65820870   -7.67237092   -0.59662086
H             4.60269363   -4.63520696   -2.71108233
N            -1.49205854   -6.08844758    0.54938562
C            -0.96010024   -6.42188699    1.84216837
C            -2.88139263   -6.35434546    0.39112708
H            -1.12783655   -7.46284959    2.14531587
H             0.13566826   -6.18327910    1.80861754
H            -1.38215527   -5.69184233    2.58010647
H            -3.12382016   -7.01110791   -0.45693043
H            -3.31272931   -6.75997037    1.33520450
H            -3.39694090   -5.36828492    0.22204398
C            -2.97653604   -0.60283264    0.30131718
C            -3.65231289   -1.61214303   -0.55750292
C            -3.02969931   -2.02722161   -1.71664180
C            -3.61149077   -2.96573006   -2.55682906
C            -4.83732519   -3.51881228   -2.26170588
C            -5.45052909   -3.09311763   -1.09559925
C            -4.87744320   -2.16087401   -0.25671925
H            -3.71731994   -0.00971393    0.87129246
H            -2.38238930    0.12513489   -0.28310488
H            -2.05607662   -1.60280366   -1.97255015
H            -3.10358445   -3.27624709   -3.46176671
H            -5.32448422   -4.25573308   -2.89419636
H            -6.41651374   -3.51687451   -0.84543862
H            -5.37782814   -1.83298450    0.66639952
O             0.00000000    0.00000000    0.00000000
C             2.40555702   -0.00000000    0.00000000
C             1.12477966    0.50280496   -0.63253203
C             1.12396929    0.21405265   -2.11863982
C             1.09532837    2.00742951   -0.45618110
H             2.54491719    0.59612467    0.94352527
H             3.25050003    0.15739752   -0.69839187
H             2.26843548   -1.07143375    0.27891621
H             2.19866110    0.10201274   -2.42395075
H             0.73905390    1.08195596   -2.69131349
H             0.63147211   -0.73871186   -2.36837305
H             1.99127256    2.50079592   -0.90039811
H             0.98932583    2.20121169    0.62718561
H             0.15669605    2.35962687   -0.93271690



