%chk=rp_34_3.chk
%mem=300GB
%nprocshared=68
#p opt=(calcfc,ts,noeigen,maxstep=5) freq b3lyp def2svp em=gd3bj  

Freeze index  [11, 18]  [18, 19]  [3, 19]  [3, 36]  [3, 28]  [3, 21] // Local index  3  18  20  36  (20,)  [11, 18]  [18, 19]

0 1
Fe            2.04813066   -5.16032154   -1.53725670
C            -2.95389400   -2.33552611    2.10281246
Pd           -1.08638945   -3.98194816    0.74841195
C            -0.66135237   -6.57629900   -0.45503955
H             3.30082914   -6.92143964   -3.37686634
H             0.70042334   -6.27080383   -3.76859311
H             0.41551825   -3.62378785   -3.23805705
C            -0.04959626   -1.41894251   -0.02328889
O            -3.77722315   -1.98625021    2.92324514
C             0.70439375   -6.00027306   -0.28009692
O             0.77244066   -2.09199892   -0.72504110
C             2.24700734   -4.43049420    0.40065579
C             2.91690160   -5.68128078    0.27669422
C             1.95583604   -6.66243309   -0.11308861
H             2.71726330   -3.47816731    0.63788946
H             3.98077173   -5.85566926    0.42947768
H             2.14699864   -7.72139640   -0.28191384
H             0.56435864   -3.37092454   -0.46459421
C             0.85943940   -4.59359173    0.05115896
C            -2.10137392   -1.30167777    1.33557259
O            -2.78382246   -3.59112654    1.74331015
C             2.62293087   -3.67078146   -2.83921435
C             3.56387252   -4.74402000   -2.88221950
C             2.86743615   -5.92816805   -3.27341713
C             1.49488556   -5.58444677   -3.47961251
C             1.34445659   -4.18990512   -3.21157801
H             2.82385901   -2.64670727   -2.53420918
N            -0.97027345   -1.99502648    0.71869058
H            -1.74306344   -0.55023874    2.05739387
H            -1.12845814   -6.22338686   -1.38568768
H             4.62070866   -4.67863341   -2.62925591
C            -0.65711239   -8.09617889   -0.47377292
H            -0.19426528   -8.47737266    0.46181408
H            -1.72032583   -8.44188083   -0.49965973
H            -0.11316312   -8.46518958   -1.37095675
N            -1.49208262   -6.07845650    0.65080744
C            -0.96009467   -6.39030699    1.94895652
C            -2.88141505   -6.34694448    0.49703652
H            -1.12781815   -7.42608566    2.26939421
H             0.13568199   -6.15228919    1.91140489
H            -1.38212497   -5.64806387    2.67463190
H            -3.12387004   -7.01774734   -0.33996297
H            -3.31272574   -6.73677973    1.44774384
H            -3.39698322   -5.36383826    0.31155244
C            -2.97652143   -0.59770728    0.31139507
C            -3.64400029   -1.67342936   -0.52221953
C            -3.99579490    0.28664093    0.99331683
C            -4.89409241    0.98985359    0.03107530
H            -4.12098265   -2.37081952    0.19431606
H            -4.35903982   -1.24665484   -1.24957922
H            -2.82392796   -2.17910501   -1.09741797
H            -2.31646067    0.04256409   -0.29028133
H            -3.43000725    1.05539087    1.55460132
H            -4.58903924   -0.27199297    1.75269933
H            -5.55667545    1.66015070    0.61734985
H            -4.28471569    1.65974503   -0.61766316
H            -5.49940600    0.31347680   -0.59632362
O             0.00000000    0.00000000    0.00000000
C             2.40555702    0.00000000   -0.00000000
C             1.12477966    0.49218577   -0.64082975
C             1.12396929    0.17868858   -2.12191509
C             1.09532837    1.99954220   -0.48959720
H             2.54491719    0.61177770    0.93345198
H             3.25050003    0.14572798   -0.70091978
H             2.26843548   -1.06663302    0.29674659
H             2.19866110    0.06157234   -2.42531497
H             0.73905390    1.03692024   -2.70898384
H             0.63147211   -0.77810842   -2.35572355
H             1.99127256    2.48543142   -0.94198070
H             0.98932583    2.21136562    0.59038697
H             0.15669605    2.34374300   -0.97194060



