%chk=rp_36_2.chk
%mem=300GB
%nprocshared=68
#p opt=(calcfc,ts,noeigen,maxstep=5) freq b3lyp def2svp em=gd3bj  

Freeze index  [11, 18]  [18, 19]  [3, 19]  [3, 32]  [3, 28]  [3, 21] // Local index  3  18  20  32  (20,)  [11, 18]  [18, 19]

-1 1
Fe            0.76505856   -1.85581413    5.49449169
C            -4.19117128    0.02682237    1.23523580
Pd           -2.52815154   -0.82213544    3.36743888
C            -2.42222323   -2.36445055    5.81074098
H             2.11407854   -3.40941307    7.44935499
H             0.35846840   -4.64367672    5.79607110
H             0.70183842   -3.62196145    3.30456308
C            -0.50737150   -0.42875080    1.36716748
O            -5.14749807    0.50163058    0.65821636
C            -1.19842441   -1.51043445    5.83654899
O             0.29062135   -0.88202956    2.24976299
C             0.24369035    0.11157291    5.06413220
C             0.46298499   -0.04269379    6.46294628
C            -0.45265851   -1.02387154    6.94989131
H             0.81757292    0.75232497    4.39744825
H             1.21349234    0.47898848    7.05470915
H            -0.54685895   -1.36316497    7.98065761
H            -0.40400944   -1.06224606    3.35962653
C            -0.78655878   -0.79979785    4.63743502
C            -2.80298180   -0.03858348    0.56221882
O            -4.27440067   -0.53833539    2.42198211
C             2.31901546   -2.38781869    4.25093873
C             2.77917149   -2.31596579    5.60082000
C             2.01884051   -3.24249181    6.37780772
C             1.09201949   -3.89338707    5.50494533
C             1.27807631   -3.36531758    4.19125137
H             2.66135319   -1.77868020    3.41796266
N            -1.79656413   -0.29704884    1.59225536
H            -2.81586588   -0.79591475   -0.19353023
H            -2.40442089   -3.33827506    6.25374781
H             3.55167001   -1.64835225    5.97858495
O            -3.61008438   -1.88461716    5.19825717
C            -2.54054965    1.29928945   -0.10980838
C            -2.18706399    2.30105336    0.93157085
C            -3.19460076    3.03923069    1.51767573
C            -2.92549978    3.98753449    2.49414745
C            -1.63649398    4.22651787    2.91485338
C            -0.63562626    3.47863669    2.31820536
C            -0.89675780    2.53493050    1.34740505
H            -1.70191197    1.15230623   -0.81728016
H            -3.40944270    1.60837996   -0.72134053
H            -4.22591380    2.86774231    1.20059947
H            -3.73320640    4.55510440    2.93999562
H            -1.38633046    4.96005961    3.67626984
H             0.38630473    3.65195656    2.63584734
H            -0.08998892    1.94888198    0.88293865
C             0.00000000    0.00000000    0.00000000
H             1.11123978    0.00000000    0.00000000
H            -0.34606400   -0.75675010   -0.74711358
H            -0.40221157    1.00416963   -0.25853552



