%chk=rp_3_1.chk
%mem=300GB
%nprocshared=68
#p opt=(calcfc,ts,noeigen,maxstep=5) freq b3lyp def2svp em=gd3bj  

Freeze index  [11, 18]  [18, 19]  [3, 19]  [3, 33]  [3, 28]  [3, 21] // Local index  3  18  20  33  (20,)  [11, 18]  [18, 19]

0 1
Fe            2.04818173   -5.04389849   -1.88439914
C            -2.95392750   -2.47306130    1.93916241
Pd           -1.08639365   -4.02359137    0.47602622
C            -0.66131759   -6.53017186   -0.90098151
H             3.30092169   -6.67591087   -3.83943879
H             0.70051515   -6.00016742   -4.18608653
H             0.41558832   -3.39533678   -3.47685108
C            -0.04959626   -1.41407815   -0.11967955
O            -3.77725483   -2.18034701    2.78142610
C             0.70442707   -5.96735513   -0.68726539
O             0.77247833   -2.03788444   -0.86555534
C             2.24701641   -4.44747460    0.09862781
C             2.91692302   -5.68693661   -0.11003258
C             1.95587576   -6.63933163   -0.56561477
H             2.71725538   -3.51346042    0.40006110
H             3.98079260   -5.87129409    0.03056040
H             2.14703775   -7.68437064   -0.80603323
H             0.56436941   -3.33154488   -0.69262303
C             0.85945404   -4.58644334   -0.26115083
C            -2.10138947   -1.38945545    1.24398567
O            -2.78382912   -3.70130876    1.49514422
C             2.62300633   -3.46930538   -3.08210150
C             3.56394019   -4.53714080   -3.19793623
C             2.86751940   -5.69196879   -3.66871024
C             1.49497708   -5.33503246   -3.85109262
C             1.34453661   -3.96192921   -3.48890060
H             2.82390592   -2.46833707   -2.70817708
N            -0.97026540   -2.03926609    0.58142075
H            -1.74308850   -0.68881555    2.01521409
H            -1.12840981   -6.11481935   -1.80548250
H            -0.65822529   -7.63163705   -0.98966896
H             4.60267022   -4.48993580   -2.94548254
N            -1.49206513   -6.10862011    0.23613869
C            -0.96008834   -6.50798853    1.51009754
C            -2.88138970   -6.36604666    0.06445284
H            -1.12782494   -7.56314393    1.75940906
H             0.13568255   -6.26796848    1.48882781
H            -1.38213703   -5.81678915    2.28454554
H            -3.12383498   -6.97840891   -0.81620104
H            -3.31272990   -6.81959366    0.98646517
H            -3.39694323   -5.37260716   -0.05378809
C            -2.97652954   -0.61750624    0.27000985
H            -3.80695300   -0.12943724    0.82412163
H            -2.34993117    0.18529254   -0.19205381
H            -3.36496575   -1.30015222   -0.51744868
O             0.00000000    0.00000000    0.00000000
C             2.40555702   -0.00000000    0.00000000
C             1.12477966    0.53460430   -0.60589425
C             1.12396929    0.32250042   -2.10486264
C             1.09532837    2.02819567   -0.35255749
H             2.54491719    0.54691684    0.97287539
H             3.25050003    0.19303199   -0.68939382
H             2.26843548   -1.08433599    0.22356205
H             2.19866110    0.22627690   -2.41552119
H             0.73905390    1.21864999   -2.63224034
H             0.63147211   -0.61619211   -2.40316321
H             1.99127256    2.54370941   -0.77086927
H             0.98932583    2.16612346    0.73932661
H             0.15669605    2.40438501   -0.81039035



