%chk=rp_39_2.chk
%mem=300GB
%nprocshared=68
#p opt=(calcfc,ts,noeigen,maxstep=5) freq b3lyp def2svp em=gd3bj  

Freeze index  [11, 18]  [18, 19]  [3, 19]  [3, 32]  [3, 28]  [3, 21] // Local index  3  18  20  32  (20,)  [11, 18]  [18, 19]

-1 1
Fe            2.04817941    5.16277004    1.52892730
C            -2.95392646    2.33215291   -2.10652468
Pd           -1.08639380    3.98072543   -0.75479626
C            -0.66132084    6.57702627    0.44448814
H             3.30090796    6.92685029    3.36568613
H             0.70050611    6.27685494    3.75849657
H             0.41558054    3.62898249    3.23221218
C            -0.04959626    1.41897810    0.02100857
O            -3.77726866    1.98155663   -2.92636999
C             0.70441511    6.00070878    0.27044286
O             0.77246871    2.09315609    0.72166408
C             2.24701070    4.42984198   -0.40780966
C             2.91690304    5.68082217   -0.28587094
C             1.95585622    6.66259660    0.10233896
H             2.71725063    3.47712510   -0.64353657
H             3.98078452    5.85495811   -0.43895612
H             2.14702913    7.72183424    0.26947495
H             0.56437189    3.37165962    0.45916670
C             0.85945319    4.59350204   -0.05856317
C            -2.10138736    1.29953482   -1.33762873
O            -2.78384378    3.58831897   -1.74903372
C             2.62298787    3.67532190    2.83326170
C             3.56394615    4.74862915    2.87452679
C             2.86750500    5.93341409    3.26383148
C             1.49495575    5.59003126    3.47060059
C             1.34453369    4.19504211    3.20481865
H             2.82390953    2.65077516    2.52989900
N            -0.97026560    1.99387411   -0.72188895
H            -1.74309392    0.54693436   -2.05826018
H            -0.86712771    7.22529526    1.27050505
H             4.62076892    4.68284005    2.62164210
O            -1.68751538    6.26498546   -0.48608064
C            -2.97652978    0.59721443   -0.31231559
C            -2.37084032   -0.74229352   -0.02129902
C            -4.36353631    0.50507454   -0.90278979
C            -3.07073696    1.36388192    0.97815947
H            -1.51557713   -0.98105318   -0.71083147
H            -3.09634950   -1.58524842   -0.14516764
H            -1.90534487   -0.76072119    1.00480727
H            -4.98842375    1.34830734   -0.51889451
H            -4.86169142   -0.42691891   -0.63068108
H            -4.35822514    0.58261048   -2.00826007
H            -2.75811956    2.39933777    0.77807512
H            -4.11749366    1.40036369    1.37742452
H            -2.41648742    0.96313576    1.77507193
O             0.00000000    0.00000000    0.00000000
C             2.40555702    0.00000000    0.00000000
C             1.12477966   -0.49115530    0.64161988
C             1.12396929   -0.17527837    2.12219950
C             1.09532837   -1.99875282    0.49280989
H             2.54491719   -0.61327700   -0.93246763
H             3.25050003   -0.14460139    0.70115307
H             2.26843548    1.06615476   -0.29846032
H             2.19866110   -0.05767471    2.42541078
H             0.73905390   -1.03256548    2.71064670
H             0.63147211    0.78189313    2.35447006
H             1.99127256   -2.48391442    0.94597364
H             0.98932583   -2.21231154   -0.58683247
H             0.15669605   -2.34217803    0.97570581



