%chk=rp_35_2.chk
%mem=300GB
%nprocshared=68
#p opt=(calcfc,ts,noeigen,maxstep=5) freq b3lyp def2svp em=gd3bj  

Freeze index  [11, 18]  [18, 19]  [3, 19]  [3, 32]  [3, 28]  [3, 21] // Local index  3  18  20  32  (20,)  [11, 18]  [18, 19]

-1 1
Fe           -3.99830698    4.26654513   -0.17035593
C             2.29339279    2.88292715   -2.34978807
Pd           -0.25150332    3.93794196   -1.68417545
C            -2.30636215    5.81761498   -2.46142231
H            -6.68289533    5.18186940   -0.27125719
H            -5.54234569    4.25281726   -2.54609819
H            -4.08281911    2.05464426   -1.90799202
C            -0.50737150    1.36306340   -0.44162464
O             3.46962014    2.85221435   -2.64729944
C            -2.62075197    5.46067471   -1.04670677
O            -1.69588397    1.73664609   -0.17872500
C            -2.27351146    4.42543607    0.98182555
C            -3.11532426    5.55314331    1.20135662
C            -3.30485567    6.21528923   -0.04918775
H            -1.98367147    3.69266031    1.73243444
H            -3.55704742    5.84689692    2.15224196
H            -3.89028012    7.11799357   -0.21904122
H            -1.81674312    2.99053679   -0.57866690
C            -1.95111033    4.33381506   -0.41880306
C             1.61306117    1.68378659   -1.65443055
O             1.49687914    3.88306727   -2.66598195
C            -4.82668491    2.41277262    0.17824771
C            -5.67203257    3.43158296    0.71349225
C            -6.05728662    4.29509693   -0.35712567
C            -5.45471882    3.80468538   -1.55752481
C            -4.69495488    2.64179078   -1.22632547
H            -4.32930698    1.62496829    0.73867691
N             0.33935816    2.13205301   -1.09103786
H             2.28187862    1.32739342   -0.85458785
H            -3.09801174    6.04576210   -3.14417315
H            -5.94816875    3.54920309    1.75994028
O            -0.95670107    5.85436787   -2.90128184
C             1.43607356    0.55976957   -2.66223150
C             0.72929825    1.09130666   -3.85842995
C            -0.64923675    1.04741028   -3.89413063
C            -1.36263003    1.52810034   -4.98279939
C            -0.71637557    2.06878312   -6.07168908
C             0.66679813    2.10641971   -6.02223486
C             1.38124885    1.63032831   -4.94329016
H             2.44700203    0.19660088   -2.92974097
H             0.91099627   -0.29950322   -2.20351272
H            -1.18491473    0.62291725   -3.04183722
H            -2.44486129    1.48294552   -4.98820191
H            -1.23983660    2.45511074   -6.94183847
H             1.19436242    2.52851718   -6.87005259
H             2.48039047    1.66742553   -4.91949890
C             0.00000000    0.00000000    0.00000000
H             1.11123978   -0.00000000    0.00000000
H            -0.34606400   -0.17128659    1.04952862
H            -0.40221157   -0.79201241   -0.66926348



