%chk=rp_38_1.chk
%mem=300GB
%nprocshared=68
#p opt=(calcfc,ts,noeigen,maxstep=5) freq b3lyp def2svp em=gd3bj  

Freeze index  [11, 18]  [18, 19]  [3, 19]  [3, 33]  [3, 28]  [3, 21] // Local index  3  18  20  33  (20,)  [11, 18]  [18, 19]

0 1
Fe            2.04811309    5.03827420    1.89945685
C            -2.95391434    2.47880994   -1.93182937
Pd           -1.08640590    4.02499835   -0.46404187
C            -0.66138008    6.52745140    0.92044145
H             3.30080479    6.66446826    3.85936933
H             0.70039728    5.98767156    4.20396899
H             0.41550900    3.38495731    3.48696508
C            -0.04959626    1.41371521    0.12389314
O            -3.77722465    2.18859828   -2.77496002
C             0.70437178    5.96529533    0.70505842
O             0.77245686    2.03530517    0.87162763
C             2.24698395    4.44776694   -0.08534170
C             2.91687843    5.68661985    0.12703164
C             1.95580747    6.63763896    0.58544148
H             2.71723650    3.51466723   -0.38955396
H             3.98075401    5.87140877   -0.01298867
H             2.14697013    7.68196053    0.82896476
H             0.56433637    3.32947114    0.70255356
C             0.85941679    4.58565062    0.27485108
C            -2.10137110    1.39313643   -1.23986111
O            -2.78384023    3.70572702   -1.48415259
C             2.62292948    3.46012368    3.09246181
C             3.56386747    4.52761981    3.21150086
C             2.86741596    5.68103186    3.68570681
C             1.49487088    5.32353771    3.86700959
C             1.34445001    3.95151679    3.50071454
H             2.82385856    2.46028347    2.71557399
N            -0.97027253    2.04098141   -0.57534787
H            -1.74306287    0.69478950   -2.01318170
H            -1.12847854    6.10940937    1.82369360
H            -0.65830620    7.62864673    1.01239547
H             4.60258636    4.48117657    2.95892230
N            -1.49211487    6.10929076   -0.21795349
C            -3.51438281    6.91817417   -1.11312950
C            -2.37098881    7.84536857   -1.55013740
C            -1.20845786    6.85629697   -1.39420791
C            -2.88555699    6.31191980    0.12346601
H            -4.43939947    7.44773351   -0.93197167
H            -3.56843697    6.10791124   -1.86792854
H            -2.51342231    8.10342761   -2.59701740
H            -2.25168301    8.69634585   -0.86604819
H            -0.23733436    7.34206636   -1.43608659
H            -1.31867465    6.16126193   -2.27776410
H            -3.00386191    6.93429122    1.02145277
H            -3.38822225    5.34253679    0.31442071
C            -2.97651681    0.61828119   -0.26820435
C            -3.64399913    1.63215401    0.63962195
C            -3.99578659   -0.21547225   -1.01113717
C            -4.89408254   -0.98518205   -0.10120210
H            -4.12098978    2.37861005   -0.02563219
H            -4.35903803    1.15484491    1.33488219
H            -2.82393125    2.09575217    1.24924360
H            -2.31644522   -0.06305023    0.28653294
H            -3.42999947   -0.94247027   -1.62554005
H            -4.58903841    0.39562482   -1.72898294
H            -5.55666188   -1.61220288   -0.73354872
H            -4.28469311   -1.69939596    0.49837678
H            -5.49939721   -0.35501784    0.57259768
O             0.00000000    0.00000000    0.00000000
C             2.40555702    0.00000000    0.00000000
C             1.12477966   -0.53640756    0.60429838
C             1.12396929   -0.32877174    2.10389220
C             1.09532837   -2.02923732    0.34651165
H             2.54491719   -0.54401513   -0.97450095
H             3.25050003   -0.19508561    0.68881550
H             2.26843548    1.08499742   -0.22032960
H             2.19866110   -0.23347444    2.41483613
H             0.73905390   -1.22648897    2.62859693
H             0.63147211    0.60902765    2.40498887
H             1.99127256   -2.54599540    0.76328528
H             0.98932583   -2.16391056   -0.74577863
H             0.15669605   -2.40678939    0.80322139



