%chk=rp_40_1.chk
%mem=300GB
%nprocshared=68
#p opt=(calcfc,ts,noeigen,maxstep=5) freq b3lyp def2svp em=gd3bj  

Freeze index  [11, 18]  [18, 19]  [3, 19]  [3, 33]  [3, 28]  [3, 21] // Local index  3  18  20  33  (20,)  [11, 18]  [18, 19]

0 1
Fe            2.04820373   -5.13319480   -1.62544985
C            -2.95393807   -2.37124616    2.06238548
Pd           -1.08639590   -3.99418099    0.68000226
C            -0.66130198   -6.56753880   -0.56775029
H             3.30095440   -6.86250591   -3.49496015
H             0.70054395   -6.20527234   -3.87554412
H             0.41562287   -3.56774988   -3.29969154
C            -0.04959626   -1.41833415   -0.04762817
O            -3.77727705   -2.03608005    2.88866624
C             0.70444110   -5.99457142   -0.38291884
O             0.77248495   -2.07925524   -0.76080104
C             2.24702394   -4.43668838    0.32468478
C             2.91693206   -5.68517018    0.17932882
C             1.95588710   -6.65949542   -0.22724805
H             2.71725729   -3.48856687    0.57822647
H             3.98080757   -5.86213142    0.32912053
H             2.14705205   -7.71540934   -0.41420219
H             0.56437868   -3.36244797   -0.52230478
C             0.85946446   -4.59378133   -0.02758645
C            -2.10139400   -1.32438922    1.31301042
O            -2.78384007   -3.62048123    1.68140866
C             2.62302586   -3.62153610   -2.90167164
C             3.56397260   -4.69387966   -2.96305003
C             2.86756086   -5.87116121   -3.37449608
C             1.49500415   -5.52395811   -3.57480410
C             1.34456253   -4.13421565   -3.28291598
H             2.82392533   -2.60285784   -2.57913842
N            -0.97026733   -2.00705603    0.68435438
H            -1.74310891   -0.58543367    2.04760365
H            -1.12838766   -6.19872063   -1.49220553
H            -0.65820135   -7.67208262   -0.60030509
H             4.60269315   -4.63390161   -2.71331401
N            -1.49206228   -6.08870611    0.54646039
C            -0.96010171   -6.42276766    1.83908658
C            -2.88138877   -6.35452753    0.38807852
H            -1.12783091   -7.46388392    2.14172436
H             0.13567837   -6.18414708    1.80563857
H            -1.38215067   -5.69307871    2.57737215
H            -3.12382255   -7.01088082   -0.46030870
H            -3.31272788   -6.76060819    1.33195562
H            -3.39694334   -5.36838781    0.21945974
C            -2.97653133   -0.60297438    0.30103140
C            -3.64398449   -1.66425710   -0.55091027
C            -3.99582826    0.26955276    0.99798560
C            -4.89411656    0.98914415    0.04792485
H            -4.12097898   -2.37382307    0.15355400
H            -4.35901680   -1.22508288   -1.27086340
H            -2.82389206   -2.15999434   -1.13467704
H            -2.31646382    0.04751820   -0.28956802
H            -3.43005746    1.02857067    1.57237872
H            -4.58908234   -0.30202353    1.74767636
H            -5.55670958    1.64928641    0.64558607
H            -4.28472250    1.67005554   -0.58922702
H            -5.49941169    0.32361234   -0.59098370
O             0.00000000    0.00000000    0.00000000
C             2.40555702    0.00000000    0.00000000
C             1.12477966    0.50310711   -0.63229173
C             1.12396929    0.21506486   -2.11853731
C             1.09532837    2.00764724   -0.45522194
H             2.54491719    0.59567381    0.94380997
H             3.25050003    0.15773118   -0.69831659
H             2.26843548   -1.07156689    0.27840427
H             2.19866110    0.10317084   -2.42390174
H             0.73905390    1.08324168   -2.69079625
H             0.63147211   -0.73758023   -2.36872572
H             1.99127256    2.50122582   -0.89920318
H             0.98932583    2.20091178    0.62823722
H             0.15669605    2.36007223   -0.93158942



