%chk=rp_43_1.chk
%mem=300GB
%nprocshared=68
#p opt=(calcfc,ts,noeigen,maxstep=5) freq b3lyp def2svp em=gd3bj  

Freeze index  [11, 18]  [18, 19]  [3, 19]  [3, 33]  [3, 28]  [3, 21] // Local index  3  18  20  33  (20,)  [11, 18]  [18, 19]

0 1
Fe           -3.99827900   -3.25237042    2.76673042
C             2.29338920   -0.81865436    3.62803746
Pd           -0.25149710   -2.05961729    3.75523542
C            -2.30635294   -3.05919658    5.52672361
H            -6.68285916   -3.91041875    3.41091336
H            -5.54234711   -1.77560919    4.62777617
H            -4.08283294   -0.43956620    2.76925027
C            -0.50737150   -0.80010958    1.18861214
O             3.46961572   -0.61090073    3.84319527
C            -2.62073122   -3.65127878    4.19318942
O            -1.69587803   -1.25633697    1.21224560
C            -2.27347109   -4.08832173    1.95809029
C            -3.11527446   -5.11123103    2.48119228
C            -3.30481848   -4.86062593    3.87384873
H            -1.98363927   -3.97484702    0.91527765
H            -3.55698378   -5.92913113    1.91416825
H            -3.89023100   -5.46617831    4.56453577
H            -1.81671897   -1.99626684    2.30067269
C            -1.95109146   -3.15196312    3.00374724
C             1.61306329   -0.30411309    2.34090585
O             1.49687566   -1.41058697    4.49397446
C            -4.82666743   -2.00869740    1.34851866
C            -5.67200434   -3.14070066    1.55598658
C            -6.05726333   -3.15961472    2.93129993
C            -5.45470925   -2.03296976    3.57331621
C            -4.69495502   -1.32222451    2.59513925
H            -4.32927650   -1.73456027    0.42140230
N             0.33935834   -1.00451288    2.17415513
H             2.28186982   -0.51718564    1.49158340
H            -2.72028166   -2.04510483    5.62208764
H            -2.69165271   -3.66867682    6.36407921
H            -5.94339379   -3.86634972    0.81795743
N            -0.84473670   -2.92986885    5.61538679
C            -0.14948934   -4.17287089    5.42293250
C            -0.39816696   -2.16473186    6.72944011
H            -0.15884518   -4.83614511    6.29678921
H            -0.62180709   -4.66956390    4.53467324
H             0.89117049   -3.92966544    5.08601248
H            -1.18849377   -1.90873390    7.44998383
H             0.44769118   -2.67722851    7.24298669
H             0.02856110   -1.20311864    6.32956072
C             1.43604811    1.20226516    2.44038672
C             0.71438489    1.48324632    3.74341056
C             2.77370229    1.90489150    2.38550033
C             2.65774908    3.38866209    2.49653519
H             1.28812367    0.96242052    4.53514398
H             0.60854350    2.56786027    3.93019358
H            -0.31396018    1.04801427    3.63309217
H             0.84905839    1.51585763    1.56589244
H             3.21916071    1.67132114    1.39901976
H             3.48443886    1.50556885    3.14450036
H             3.67557269    3.81559565    2.37915078
H             2.06668469    3.77616982    1.63546341
H             2.20861396    3.73552821    3.44283348
C             0.00000000    0.00000000    0.00000000
H             1.11123978    0.00000000   -0.00000000
H            -0.34606400   -0.51283244   -0.93158591
H            -0.40221157    1.03622298    0.03793672



