%chk=rp_45_2.chk
%mem=300GB
%nprocshared=68
#p opt=(calcfc,ts,noeigen,maxstep=5) freq b3lyp def2svp em=gd3bj  

Freeze index  [11, 18]  [18, 19]  [3, 19]  [3, 32]  [3, 28]  [3, 21] // Local index  3  18  20  32  (20,)  [11, 18]  [18, 19]

-1 1
Fe            2.04817238    5.26236531    1.13991002
C            -2.95391481    2.16866997   -2.27447443
Pd           -1.08638912    3.91340319   -1.04937213
C            -0.66132474    6.59185336   -0.04691544
H             3.30089918    7.15841912    2.84009724
H             0.70049545    6.53951148    3.28025397
H             0.41557232    3.85978142    2.95276607
C            -0.04959626    1.41659720   -0.08480905
O            -3.77725540    1.75794126   -3.06591609
C             0.70441500    6.00417294   -0.17751494
O             0.77247401    2.14111354    0.56366773
C             2.24701525    4.38713363   -0.73681991
C             2.91691074    5.64371458   -0.70844714
C             1.95584854    6.65170068   -0.39448161
H             2.71725770    3.41949631   -0.90088657
H             3.98078464    5.80596888   -0.87407988
H             2.14702519    7.72044048   -0.30676024
H             0.56436951    3.39649771    0.20661170
C             0.85944944    4.57636633   -0.40073836
C            -2.10137620    1.19622535   -1.43076070
O            -2.78383064    3.44798923   -2.01160665
C             2.62299054    3.87625034    2.55147865
C             3.56393695    4.94965809    2.51264340
C             2.86749987    6.16015230    2.81256173
C             1.49495363    5.83314320    3.04434243
C             1.34452455    4.42222150    2.88326099
H             2.82391350    2.83195143    2.32531308
N            -0.97026137    1.93452500   -0.86848490
H            -1.74307897    0.39201063   -2.09329984
H            -0.86712874    7.29988327    0.72849016
H             4.62076195    4.86521194    2.26536628
O            -1.68751517    6.21132498   -0.95164204
C            -2.97652260    0.57227322   -0.35596238
H            -3.80694770    0.00964112   -0.83418158
H            -2.34993185   -0.15578420    0.21667775
H            -3.36495233    1.36099843    0.32521379
O             0.00000000    0.00000000    0.00000000
C             2.40555702   -0.00000000   -0.00000000
C             1.12477966   -0.44196804    0.67644205
C             1.12396929   -0.01661921    2.12936071
C             1.09532837   -1.95646347    0.64041013
H             2.54491719   -0.68106987   -0.88416536
H             3.25050003   -0.09194090    0.70998032
H             2.26843548    1.04094456   -0.37709277
H             2.19866110    0.12325628    2.42296342
H             0.73905390   -0.82766377    2.78006649
H             0.63147211    0.95520162    2.28964539
H             1.99127256   -2.40650048    1.12847350
H             0.98932583   -2.24989603   -0.42031240
H             0.15669605   -2.26294232    1.14755908



