%chk=rp_46_2.chk
%mem=300GB
%nprocshared=68
#p opt=(calcfc,ts,noeigen,maxstep=5) freq b3lyp def2svp em=gd3bj  

Freeze index  [11, 18]  [18, 19]  [3, 19]  [3, 32]  [3, 28]  [3, 21] // Local index  3  18  20  32  (20,)  [11, 18]  [18, 19]

-1 1
Fe            0.25080978   -4.99795340    2.85383795
C            -3.69937723   -1.61021092   -1.52441967
Pd           -2.43654976   -3.40387782    0.27019901
C            -2.15518363   -6.17977134    1.02846347
H             1.67215979   -7.18202623    3.97836464
H             1.30608015   -7.11569142    1.29499644
H             1.67535824   -4.55676300    0.46740966
C            -0.49636088   -1.28924979    0.32842175
O            -4.58154954   -1.06323387   -2.15334011
C            -1.61375399   -5.40439094    2.18315261
O             0.16897225   -2.07687449    1.07557175
C            -1.09692446   -3.50084247    3.37338718
C            -1.18887162   -4.58411885    4.29350323
C            -1.54166287   -5.75845003    3.56225319
H            -0.79856473   -2.48306048    3.61727524
H            -1.00036233   -4.53206564    5.36464964
H            -1.69923438   -6.75343388    3.97653178
H            -0.58040998   -3.14260745    1.29791000
C            -1.35015205   -3.98224703    2.03987906
C            -2.36659540   -0.89024990   -1.22495419
O            -3.76875106   -2.86466791   -1.12919168
C             2.10637850   -4.13192338    2.62789636
C             2.10414096   -4.98516001    3.77291127
C             1.77621772   -6.30629705    3.34008815
C             1.58261202   -6.27078271    1.92382791
C             1.78697729   -4.92750740    1.48436836
H             2.27468663   -3.05780152    2.62242751
N            -1.67086983   -1.61848432   -0.16367751
H            -2.59801487    0.13608716   -0.89761257
H            -1.74131821   -7.13600400    0.78503460
H             2.28775342   -4.67684159    4.80071841
O            -3.21947399   -5.64844396    0.25297662
C            -1.54778668   -0.80843410   -2.50294374
C            -1.44466051   -2.21458429   -3.05947403
C            -2.19251120    0.13363071   -3.49434211
C            -1.43581951    0.23769387   -4.77651048
H            -2.48052576   -2.60320872   -3.11628962
H            -0.92243046   -2.23478948   -4.03382084
H            -0.83064543   -2.79907658   -2.32433768
H            -0.56558198   -0.39789472   -2.23022649
H            -2.20454951    1.13605236   -3.02408798
H            -3.25839819   -0.12826113   -3.68398522
H            -1.94502677    0.99584835   -5.40733219
H            -0.42071218    0.64812584   -4.57145356
H            -1.34834388   -0.71505369   -5.32618257
O             0.00000000    0.00000000    0.00000000
C             1.41083033    0.00000000   -0.00000000
C             1.94061031   -0.96570469   -0.98984344
C             2.20995799   -2.29487885   -0.67553036
C             2.70552417   -3.18322642   -1.61605831
C             2.94592662   -2.76156386   -2.90392325
C             2.68645864   -1.44771211   -3.23933551
C             2.19263547   -0.57075862   -2.29404503
H             1.79393422   -0.24811162    1.01005349
H             1.72408576    1.02724085   -0.28608974
H             2.01310165   -2.60485717    0.34463063
H             2.90331403   -4.21602258   -1.32997827
H             3.33765042   -3.48455605   -3.62709449
H             2.87529943   -1.10871624   -4.25860443
H             1.98003595    0.47894977   -2.54270023



