%chk=rp_4_2.chk
%mem=300GB
%nprocshared=68
#p opt=(calcfc,ts,noeigen,maxstep=5) freq b3lyp def2svp em=gd3bj  

Freeze index  [11, 18]  [18, 19]  [3, 19]  [3, 32]  [3, 28]  [3, 21] // Local index  3  18  20  32  (20,)  [11, 18]  [18, 19]

-1 1
Fe            2.04815156    4.90759766    2.21526906
C            -2.95392311    2.59637688   -1.77062062
Pd           -1.08641203    4.04632200   -0.20772136
C            -0.66134611    6.45589689    1.33273181
H             3.30087333    6.40616458    4.27439498
H             0.70047235    5.70887210    4.57537823
H             0.41556065    3.15689433    3.69469857
C            -0.04959626    1.40300593    0.21334143
O            -3.77726535    2.36025327   -2.63045798
C             0.70439010    5.90852111    1.08210912
O             0.77246768    1.97588575    0.99900148
C             2.24699623    4.44421999    0.19699504
C             2.91688443    5.66708677    0.48753407
C             1.95583252    6.58711350    1.00536667
H             2.71724500    3.53228928   -0.16581306
H             3.98076100    5.86039181    0.35949783
H             2.14700128    7.61387444    1.31466201
H             0.56435265    3.27818705    0.91238846
C             0.85942977    4.55897204    0.56521875
C            -2.10138198    1.46898994   -1.14894258
O            -2.78385144    3.79243223   -1.24600643
C             2.62297657    3.25693957    3.30573275
C             3.56392136    4.31472605    3.49223888
C             2.86747845    5.43573262    4.03869227
C             1.49493342    5.06746301    4.19695524
C             1.34451028    3.72143544    3.74436185
H             2.82390370    2.28302602    2.86616245
N            -0.97026826    2.07337449   -0.44468798
H            -1.74308503    0.82112380   -1.96501487
H            -0.86715507    6.98609577    2.23906548
H             4.62074040    4.28386158    3.23277776
O            -1.68754082    6.27298663    0.36842871
C            -2.97652764    0.63405098   -0.22840000
C            -3.65231392    1.53539706    0.74311527
C            -3.02970296    1.81132996    1.94302226
C            -3.61152074    2.64454303    2.88771089
C            -4.83734775    3.22849177    2.65964185
C            -5.45053691    2.94284024    1.45157150
C            -4.87743550    2.11568551    0.50891868
H            -3.71730821    0.11205329   -0.86416075
H            -2.38239056   -0.15757134    0.26638685
H            -2.05609333    1.35975959    2.14727159
H            -3.10362630    2.84652186    3.82287956
H            -5.32450963    3.88594825    3.37437587
H            -6.41651926    3.39307561    1.25294756
H            -5.37781425    1.89859592   -0.44635496
O             0.00000000    0.00000000    0.00000000
C             2.40555702    0.00000000    0.00000000
C             1.12477966   -0.57366851    0.56904661
C             1.12396929   -0.46159781    2.07879309
C             1.09532837   -2.04713426    0.21706169
H             2.54491719   -0.48108852   -1.00705431
H             3.25050003   -0.23839675    0.67504976
H             2.26843548    1.09679083   -0.15104436
H             2.19866110   -0.38622141    2.39515696
H             0.73905390   -1.39079791    2.54548192
H             0.63147211    0.45520794    2.43878492
H             1.99127256   -2.58929473    0.60020812
H             0.98932583   -2.11223212   -0.88157256
H             0.15669605   -2.45290309    0.64889616



