%chk=rp_52_1.chk
%mem=300GB
%nprocshared=68
#p opt=(calcfc,ts,noeigen,maxstep=5) freq b3lyp def2svp em=gd3bj  

Freeze index  [11, 18]  [18, 19]  [3, 19]  [3, 40]  [3, 28]  [3, 21] // Local index  3  18  20  40  (20,)  [11, 18]  [18, 19]

0 1
Fe            2.04815592   -5.12207241   -1.66022059
C            -2.95393750   -2.38514567    2.04627604
Pd           -1.08642053   -3.99870145    0.65292349
C            -0.66134564   -6.56353816   -0.61225262
H             3.30087788   -6.83869207   -3.54140725
H             0.70048313   -6.17887104   -3.91751360
H             0.41556930   -3.54528744   -3.32380423
C            -0.04959626   -1.41797904   -0.05723324
O            -3.77727609   -2.05559018    2.87481483
C             0.70439440   -5.99185528   -0.42354607
O             0.77246627   -2.07406280   -0.77486103
C             2.24698106   -4.43881235    0.29459873
C             2.91688599   -5.68627691    0.14077230
C             1.95582728   -6.65783570   -0.27239370
H             2.71723167   -3.49243931    0.55456473
H             3.98075468   -5.86427986    0.28936201
H             2.14699373   -7.71245104   -0.46650415
H             0.56435970   -3.35884984   -0.54509097
C             0.85942761   -4.59350619   -0.05871040
C            -2.10139209   -1.33325192    1.30400052
O            -2.78387223   -3.63178901    1.65685185
C             2.62298381   -3.60181467   -2.92615619
C             3.56392889   -4.67373066   -2.99480732
C             2.86748314   -5.84818349   -3.41423268
C             1.49495005   -5.49961337   -3.61216516
C             1.34451216   -4.11187836   -3.31086498
H             2.82390312   -2.58535287   -2.59673222
N            -0.97026918   -2.01164857    0.67074649
H            -1.74309632   -0.59928979    2.04360139
H            -1.12844704   -6.18845698   -1.53418783
H            -0.65827903   -7.66783480   -0.65227818
C             5.03949405   -4.59093980   -2.63949483
O             5.57851309   -3.57848201   -3.44399298
C             5.29082814   -3.94200125   -4.76487830
H             5.21011495   -4.40528892   -1.56007905
H             5.56930713   -5.56177028   -2.85211353
H             5.75884497   -4.91686002   -4.97587930
H             5.75441710   -3.21690548   -5.49223115
H             4.20484512   -3.90942307   -4.97588027
N            -1.49210574   -6.09226669    0.50517840
C            -0.96014894   -6.43508899    1.79551184
C            -2.88143448   -6.35700323    0.34499706
H            -1.12788473   -7.47821517    2.09108679
H             0.13562574   -6.19623806    1.76368527
H            -1.38219498   -5.71040692    2.53872822
H            -3.12387664   -7.00759624   -0.50781471
H            -3.31277567   -6.76946658    1.28610553
H            -3.39698485   -5.36974220    0.18306590
C            -2.97651571   -0.60497603    0.29693719
C            -3.24545035   -1.58267737   -0.81158876
C            -4.18864966   -0.02355756    0.92167109
H            -3.20096684   -2.65319463   -0.45940917
H            -2.40108013   -1.51483391   -1.55670356
H            -4.19421059   -1.43400993   -1.32643222
H            -2.35844855    0.22655547   -0.12516782
H            -5.13912312   -0.52024289    0.66205204
H            -4.06099406    0.00845045    2.03378827
H            -4.32105315    1.05093983    0.61810269
O             0.00000000    0.00000000    0.00000000
C             2.40555702   -0.00000000    0.00000000
C             1.12477966    0.50737799   -0.62886976
C             1.12396929    0.22940846   -2.11703212
C             1.09532837    2.01068434   -0.44161401
H             2.54491719    0.58926786    0.94782273
H             3.25050003    0.16245716   -0.69723228
H             2.26843548   -1.07342790    0.27114032
H             2.19866110    0.11958519   -2.42314738
H             0.73905390    1.10144120   -2.68339790
H             0.63147211   -0.72152029   -2.37366691
H             1.99127256    2.50725862   -0.88224214
H             0.98932583    2.19660635    0.64312926
H             0.15669605    2.36632761   -0.91558364



