%chk=rp_51_1.chk
%mem=300GB
%nprocshared=68
#p opt=(calcfc,ts,noeigen,maxstep=5) freq b3lyp def2svp em=gd3bj  

Freeze index  [11, 18]  [18, 19]  [3, 19]  [3, 44]  [3, 28]  [3, 21] // Local index  3  18  20  44  (20,)  [11, 18]  [18, 19]

0 1
Fe            2.04827251   -5.11512251   -1.68134067
C            -2.95394750   -2.39365283    2.03635153
Pd           -1.08636565   -4.00137937    0.63636738
C            -0.66123557   -6.56096333   -0.63938531
H             3.30107014   -6.82393233   -3.56957391
H             0.70067282   -6.16260661   -3.94301871
H             0.41570440   -3.53151922   -3.33840749
C            -0.04959626   -1.41773027   -0.06309583
O            -3.77731509   -2.06753317    2.86620932
C             0.70450045   -5.99004215   -0.44828812
O             0.77251573   -2.07082410   -0.78341748
C             2.24705768   -4.43996276    0.27629347
C             2.91697692   -5.68675720    0.11732604
C             1.95593973   -6.65660824   -0.29986525
H             2.71727061   -3.49465557    0.54018651
H             3.98084844   -5.86535293    0.26520413
H             2.14713191   -7.71041144   -0.49833615
H             0.56442144   -3.35654648   -0.55894931
C             0.85949698   -4.59320986   -0.07769018
C            -2.10141518   -1.33866701    1.29844348
O            -2.78383908   -3.63865430    1.64176716
C             2.62311147   -3.58963458   -2.94096909
C             3.56407645   -4.66123885   -3.01401095
C             2.86765585   -5.83396066   -3.43831193
C             1.49511437   -5.48460492   -3.63484476
C             1.34464821   -4.09812935   -3.32779438
H             2.82399834   -2.57453215   -2.60733652
N            -0.97025355   -2.01441288    0.66240929
H            -1.74313634   -0.60776168    2.04107650
H            -1.12830461   -6.18207902   -1.55975969
H            -0.65812942   -7.66508295   -0.68398975
C             5.03962979   -4.57988909   -2.65833755
N             5.89823680   -4.32150125   -3.79613257
C             5.77956124   -5.36911303   -4.80442505
C             5.42227977   -3.10582674   -4.46981812
H             5.20135654   -3.74282172   -1.94679743
H             5.39616845   -5.50046652   -2.14985508
H             6.04468245   -6.35863236   -4.43477550
H             4.77102454   -5.29389402   -5.25613748
H             6.49100487   -5.06517099   -5.62482950
H             6.28163160   -2.74290139   -5.06820808
H             5.05743417   -2.38172283   -3.74433418
H             4.60755181   -3.38821825   -5.19558760
N            -1.49202044   -6.09433156    0.47996593
C            -0.96007957   -6.44247423    1.76887491
C            -2.88134316   -6.35842527    0.31867024
H            -1.12779966   -7.48681877    2.06013908
H             0.13569709   -6.20347761    1.73806248
H            -1.38215218   -5.72088659    2.51507647
H            -3.12375452   -7.00548578   -0.53683486
H            -3.31269650   -6.77478645    1.25805037
H            -3.39690489   -5.37051012    0.16081427
C            -2.97652723   -0.60625724    0.29437623
C            -3.24541784   -1.57937835   -0.81818328
C            -4.18868503   -0.02745297    0.92148313
H            -3.20091466   -2.65134448   -0.47042339
H            -2.40103428   -1.50843167   -1.56300148
H            -4.19417441   -1.42861244   -1.33242205
H            -2.35847543    0.22701989   -0.12427383
H            -5.13914219   -0.52307860    0.65979210
H            -4.06104963   -0.00002924    2.03371977
H            -4.32110296    1.04829028    0.62234737
O             0.00000000    0.00000000    0.00000000
C             2.40555702    0.00000000   -0.00000000
C             1.12477966    0.50997391   -0.62676647
C             1.12396929    0.23816004   -2.11606546
C             1.09532837    2.01249314   -0.43329642
H             2.54491719    0.58534375    0.95025115
H             3.25050003    0.16533870   -0.69655459
H             2.26843548   -1.07453984    0.26669958
H             2.19866110    0.12960345   -2.42263220
H             0.73905390    1.11252714   -2.67882071
H             0.63147211   -0.71169944   -2.37662998
H             1.99127256    2.51088510   -0.87186753
H             0.98932583    2.19392835    0.65220633
H             0.15669605    2.37009316   -0.90579147



