%chk=rp_54_1.chk
%mem=300GB
%nprocshared=68
#p opt=(calcfc,ts,noeigen,maxstep=5) freq b3lyp def2svp em=gd3bj  

Freeze index  [11, 18]  [18, 19]  [3, 19]  [3, 33]  [3, 28]  [3, 21] // Local index  3  18  20  33  (20,)  [11, 18]  [18, 19]

0 1
Fe            0.75446740   -0.71248098   -5.66657534
C            -4.16596910   -0.54415327   -0.97499647
Pd           -2.52063120   -0.71163637   -3.27660758
C            -2.43621888   -0.38901290   -6.14862999
H             2.08549636   -0.16813831   -8.11341662
H             0.33925472    1.66543919   -7.15033022
H             0.70327860    1.83182029   -4.46535357
C            -0.48429175   -0.19584902   -1.32041837
O            -5.11692382   -0.71881490   -0.24141706
C            -1.21068229   -1.17021927   -5.80884614
O             0.30615053   -0.17363080   -2.31840586
C             0.24081744   -2.29480238   -4.41753439
C             0.44947222   -2.76610667   -5.74529357
C            -0.47197976   -2.09435839   -6.60430985
H             0.82106850   -2.58141525   -3.54259963
H             1.19681743   -3.49443461   -6.05609792
H            -0.57454931   -2.23829575   -7.67911971
H            -0.39704136   -0.49454993   -3.39044947
C            -0.78836305   -1.28741127   -4.42304002
C            -2.77302457   -0.19344147   -0.40842791
O            -4.25920986   -0.55285247   -2.28873484
C             2.31629688    0.30672656   -4.79126551
C             2.76668380   -0.34699346   -5.97821992
C             1.99852770    0.14891998   -7.07561227
C             1.07665384    1.11630308   -6.56681778
C             1.27356282    1.21362691   -5.15579821
H             2.66613653    0.12131811   -3.77867342
N            -1.77479471   -0.41105346   -1.45574666
H            -2.57696632   -0.85405048    0.45135669
H            -2.26991356    0.69069135   -6.02450124
H            -2.78116060   -0.56770551   -7.18313316
H             3.52470809   -1.10026260   -6.03206549
N            -3.47985362   -0.76998590   -5.18603977
C            -3.75240440   -2.18097366   -5.16903122
C            -4.63624082    0.05884254   -5.22828131
H            -4.37272226   -2.53171083   -6.00319352
H            -2.75728045   -2.69908343   -5.16088673
H            -4.20292031   -2.42641374   -4.17281934
H            -4.65704544    0.76592068   -6.07024880
H            -5.56274312   -0.56025306   -5.21498450
H            -4.65821768    0.65689956   -4.27509748
C            -2.78592010    1.24286966    0.08880968
C            -2.81872475    2.17931797   -1.07659998
C            -1.66938044    2.64798691   -1.65730267
C            -1.75788956    3.51539955   -2.73697224
C            -2.98954261    3.92235512   -3.24613186
C            -3.03135358    4.85612026   -4.40832427
C            -3.05311276    6.34238312   -4.12218284
F            -3.09062579    6.98949308   -5.33450067
F            -2.04177085    6.75536808   -3.31180613
F            -4.24732767    6.58907138   -3.44723595
N            -4.06022755    4.47309167   -5.36634741
N            -2.86065811    4.34203736   -5.67964590
C            -4.13442355    3.43746275   -2.64524196
C            -4.06429127    2.57386946   -1.57036506
H            -1.89015607    1.47387103    0.71528992
H            -3.67979858    1.39793909    0.72377069
H            -0.68891750    2.34914999   -1.28322383
H            -0.83673488    3.87635244   -3.18412321
H            -5.11779948    3.74513818   -3.03031892
H            -4.97164005    2.21410685   -1.12467364
O             0.00000000    0.00000000    0.00000000
C             1.40115125    0.00000000   -0.00000000
C             1.85332832    0.20948593    1.41258833
C             3.31426035    0.23242261    1.56743654
C             4.30909480    0.96737953    0.88410939
C             5.60714318    0.76719500    1.26356479
C             5.97753546   -0.11683473    2.27857358
C             4.98214893   -0.81549308    2.92202885
C             3.64263867   -0.64055859    2.56515831
C             2.41225100   -1.24440887    3.07569184
C             2.21220386   -2.19293234    4.09112102
C             0.95250019   -2.63254139    4.41792928
C            -0.12415553   -2.12410678    3.72773863
C             0.06816140   -1.19670924    2.73451832
C             1.34991167   -0.73083330    2.38162909
H             1.78345365    0.88003396   -0.58830635
H             1.75798689   -0.91642817   -0.46348420
H             1.49986303    1.25449325    1.67912084
H             3.98803865    1.63796554    0.10923276
H             6.40434382    1.32039909    0.75518737
H             7.00361622   -0.24604745    2.54667596
H             5.20622864   -1.50892419    3.71000904
H             3.08702547   -2.57138241    4.61389783
H             0.74964876   -3.35941594    5.18996487
H            -1.13302424   -2.44163687    3.95158904
H            -0.76357885   -0.76544147    2.15912727



