%chk=rp_5_1.chk
%mem=300GB
%nprocshared=68
#p opt=(calcfc,ts,noeigen,maxstep=5) freq b3lyp def2svp em=gd3bj  

Freeze index  [11, 18]  [18, 19]  [3, 19]  [3, 39]  [3, 28]  [3, 21] // Local index  3  18  20  39  (20,)  [11, 18]  [18, 19]

0 1
Fe            2.04816255   -5.12109276   -1.66318484
C            -2.95391235   -2.38633775    2.04493905
Pd           -1.08638939   -3.99906601    0.65063921
C            -0.66132832   -6.56318260   -0.61601797
H             3.30088892   -6.83663652   -3.54536077
H             0.70047489   -6.17660201   -3.92107049
H             0.41556503   -3.54338919   -3.32584737
C            -0.04959626   -1.41794649   -0.05803419
O            -3.77724644   -2.05726570    2.87366269
C             0.70441615   -5.99159572   -0.42700008
O             0.77247124   -2.07361375   -0.77606113
C             2.24700626   -4.43896328    0.29202912
C             2.91691174   -5.68634578    0.13747455
C             1.95584618   -6.65764647   -0.27623591
H             2.71726395   -3.49274013    0.55253625
H             3.98078595   -5.86441917    0.28595676
H             2.14702179   -7.71216431   -0.47095703
H             0.56437633   -3.35852158   -0.54702814
C             0.85945647   -4.59345160   -0.06136666
C            -2.10138417   -1.33401181    1.30326398
O            -2.78382937   -3.63275410    1.65479006
C             2.62298943   -3.60011023   -2.92824634
C             3.56393041   -4.67197859   -2.99752383
C             2.86749743   -5.84618901   -3.41761268
C             1.49494992   -5.49753182   -3.61535298
C             1.34450866   -4.10995702   -3.31323760
H             2.82390859   -2.58382832   -2.59824681
N            -0.97025994   -2.01204443    0.66960115
H            -1.74308242   -0.60046747    2.04327790
H            -1.12842533   -6.18757936   -1.53773021
H            -0.65824123   -7.66745660   -0.65669675
C             5.03949893   -4.58939001   -2.64217196
C             5.86349418   -3.89531877   -3.69301542
H             5.13424961   -3.99692155   -1.70410650
H             5.49565009   -5.57452843   -2.45821308
H             5.45889669   -2.91982965   -3.99992062
H             6.86352389   -3.68515996   -3.21788986
H             6.05238802   -4.56114744   -4.57376243
N            -1.49207148   -6.09256305    0.50169223
C            -0.96008906   -6.43614573    1.79181020
C            -2.88139980   -6.35720519    0.34137549
H            -1.12782487   -7.47945462    2.08678386
H             0.13567781   -6.19729077    1.76011751
H            -1.38212519   -5.71190393    2.53546796
H            -3.12384934   -7.00729760   -0.51181719
H            -3.31272343   -6.77022584    1.28224555
H            -3.39696324   -5.36985756    0.18003645
C            -2.97652746   -0.60516242    0.29663192
C            -3.24546651   -1.58222599   -0.81245513
C            -4.18866158   -0.02411933    0.92171965
H            -3.20095762   -2.65294954   -0.46089390
H            -2.40110950   -1.51393543   -1.55754799
H            -4.19423633   -1.43328001   -1.32719193
H            -2.35848559    0.22661839   -0.12499734
H            -5.13912838   -0.52066125    0.66182215
H            -4.06099457    0.00725198    2.03385024
H            -4.32108003    1.05055479    0.61877115
O             0.00000000    0.00000000    0.00000000
C             2.40555702   -0.00000000    0.00000000
C             1.12477966    0.50773313   -0.62858306
C             1.12396929    0.23060425   -2.11690220
C             1.09532837    2.01093347   -0.44047819
H             2.54491719    0.58873238    0.94815544
H             3.25050003    0.16285097   -0.69714041
H             2.26843548   -1.07358089    0.27053394
H             2.19866110    0.12095391   -2.42307945
H             0.73905390    1.10295676   -2.68277532
H             0.63147211   -0.72017939   -2.37407409
H             1.99127256    2.50775656   -0.88082575
H             0.98932583    2.19624272    0.64436993
H             0.15669605    2.36684441   -0.91424685



