%chk=rp_57_2.chk
%mem=300GB
%nprocshared=68
#p opt=(calcfc,ts,noeigen,maxstep=5) freq b3lyp def2svp em=gd3bj  

Freeze index  [11, 18]  [18, 19]  [3, 19]  [3, 32]  [3, 28]  [3, 21] // Local index  3  18  20  32  (20,)  [11, 18]  [18, 19]

-1 1
Fe            0.25077355    5.30535665    2.23096284
C            -3.69938432   -0.23047683    2.20531098
Pd           -2.43657502    2.28501222    2.53732343
C            -2.15523010    4.57541667    4.27934073
H             1.67210977    7.52647821    3.28045786
H             1.30602457    5.35629296    4.86008319
H             1.67532958    3.14285655    3.33245213
C            -0.49636088    1.04492136    0.82350788
O            -4.58155220   -1.06239041    2.15373357
C            -1.61379415    5.02025174    2.96152675
O             0.16895367    2.11705761    0.99417806
C            -1.09695111    4.80703754    0.72664359
C            -1.18890408    6.19630225    1.02675402
C            -1.54170371    6.33022866    2.40364531
H            -0.79858980    4.38150612   -0.22952808
H            -1.00040821    7.01482044    0.33387424
H            -1.69927947    7.26429058    2.94138362
H            -0.58043282    2.94180203    1.70480697
C            -1.35017963    4.04145171    1.91990115
C            -2.36659951   -0.43072352    1.45172710
O            -3.76877632    0.84630005    2.96058274
C             2.10635554    4.59923216    1.68103361
C             2.10410285    6.02706523    1.66175014
C             1.77617619    6.48716630    2.97363949
C             1.58256497    5.34145923    3.80695154
C             1.78694488    4.17554787    3.00810129
H             2.27466928    3.94151830    0.83181699
N            -1.67087965    0.85459700    1.38416538
H            -2.59801018   -0.79523388    0.43798248
H            -1.74137313    4.96387058    5.18638760
H             2.28771270    6.65530309    0.79183505
O            -3.21951652    3.63669583    4.32934385
C            -1.54779143   -1.49485083    2.16417880
C            -1.30041253   -2.70935540    1.28887104
C            -0.56077260   -2.39208923    0.03734781
C            -2.65851238   -3.33960817    1.03727545
H            -0.58137855   -1.10747779    2.57212851
H            -2.12297664   -1.84053282    3.05130944
H            -0.70394475   -3.44912802    1.86012052
H             0.54096411   -2.42623873    0.22514356
H            -0.77792547   -3.19854436   -0.70508442
H            -0.79448622   -1.43836955   -0.41805758
H            -3.45022815   -2.54675881    1.00162221
H            -2.65181362   -3.90303699    0.09106023
H            -2.88540936   -4.01805787    1.91017681
O             0.00000000    0.00000000    0.00000000
C             1.41083033    0.00000000   -0.00000000
C             1.94061031   -0.19820769    1.36860853
C             2.20995799    0.85980151    2.23238696
C             2.70552417    0.65367954    3.50959798
C             2.94592662   -0.62500545    3.95832962
C             2.68645864   -1.69044060    3.11954731
C             2.19263547   -1.47360756    1.84848282
H             1.79393422    0.95261301   -0.41748757
H             1.72408576   -0.85194210   -0.64130006
H             2.01310165    1.85807043    1.85785505
H             2.90331403    1.50899324    4.15531322
H             3.33765042   -0.75919551    4.97207879
H             2.87529943   -2.70565286    3.47050515
H             1.98003595   -2.30950460    1.16657869



