%chk=rp_50_2.chk
%mem=300GB
%nprocshared=68
#p opt=(calcfc,ts,noeigen,maxstep=5) freq b3lyp def2svp em=gd3bj  

Freeze index  [11, 18]  [18, 19]  [3, 19]  [3, 32]  [3, 28]  [3, 21] // Local index  3  18  20  32  (20,)  [11, 18]  [18, 19]

-1 1
Fe            2.04814295    5.18678338    1.44543432
C            -2.95391073    2.29783936   -2.14389974
Pd           -1.08641049    3.96802718   -0.81893926
C            -0.66135816    6.58334043    0.33829834
H             3.30085141    6.98028330    3.25349875
H             0.70044045    6.33669451    3.65672927
H             0.41553798    3.68068075    3.17323670
C            -0.04959626    1.41913236   -0.00188878
O            -3.77724953    1.93405568   -2.95798527
C             0.70438218    6.00429955    0.17358706
O             0.77246167    2.10453980    0.68781064
C             2.24700062    4.42269828   -0.47921881
C             2.91688670    5.67548737   -0.37748294
C             1.95582281    6.66339902   -0.00516551
H             2.71724144    3.46630361   -0.69954480
H             3.98075926    5.84714360   -0.53334965
H             2.14698752    7.72519697    0.14485260
H             0.56435321    3.37863632    0.40471021
C             0.85942642    4.59196284   -0.13266825
C            -2.10137434    1.27777922   -1.35843061
O            -2.78384333    3.55962050   -1.80672830
C             2.62295817    3.72058004    2.77361115
C             3.56390159    4.79442196    2.79755270
C             2.86745751    5.98532476    3.16768609
C             1.49491301    5.64532417    3.37995987
C             1.34448501    4.24622179    3.13671897
H             2.82388994    2.69127758    2.48682065
N            -0.97027284    1.98196529   -0.75397140
H            -1.74307917    0.51363906   -2.06681697
H            -0.86717198    7.24485323    1.15374273
H             4.62072556    4.72457607    2.54577446
O            -1.68754093    6.25632083   -0.58712578
C            -2.97652548    0.59208521   -0.32192917
C            -3.09195689   -0.90098250   -0.56648137
C            -1.78242135   -1.60650578   -0.52921164
C            -3.82108671   -1.06326932   -1.88821764
H            -2.65064780    0.78881307    0.72951583
H            -4.00162663    1.01760406   -0.39565953
H            -3.74141526   -1.34447424    0.21510818
H            -1.53483119   -1.89797059    0.52150459
H            -1.88809248   -2.55963692   -1.10288882
H            -0.94109827   -1.05792922   -0.93274180
H            -3.56565913   -0.21525016   -2.57546969
H            -3.55191523   -2.02077173   -2.36103473
H            -4.92811257   -1.01532609   -1.67390893
O             0.00000000    0.00000000    0.00000000
C             2.40555702    0.00000000   -0.00000000
C             1.12477966   -0.48073910    0.64946094
C             1.12396929   -0.14101476    2.12475130
C             1.09532837   -1.99054136    0.52499478
H             2.54491719   -0.62824214   -0.92245128
H             3.25050003   -0.13326976    0.70339488
H             2.26843548    1.06120044   -0.31562343
H             2.19866110   -0.01853422    2.42602562
H             0.73905390   -0.98869592    2.72695387
H             0.63147211    0.81977974    2.34154806
H             1.99127256   -2.46832820    0.98592743
H             0.98932583   -2.22149185   -0.55106136
H             0.15669605   -2.32613055    1.01336886



