%chk=rp_53_1.chk
%mem=300GB
%nprocshared=68
#p opt=(calcfc,ts,noeigen,maxstep=5) freq b3lyp def2svp em=gd3bj  

Freeze index  [11, 18]  [18, 19]  [3, 19]  [3, 33]  [3, 28]  [3, 21] // Local index  3  18  20  33  (20,)  [11, 18]  [18, 19]

0 1
Fe            2.04816787   -5.06760706   -1.81969642
C            -2.95393076   -2.44802699    1.97065530
Pd           -1.08640485   -4.01716577    0.52747774
C            -0.66134017   -6.54115790   -0.81733041
H             3.30089424   -6.72451688   -3.75368389
H             0.70048403   -6.05325224   -4.10894929
H             0.41558064   -3.43955697   -3.43311053
C            -0.04959626   -1.41549342   -0.10158044
O            -3.77725862   -2.14454967    2.80909724
C             0.70440056   -5.97566664   -0.61084179
O             0.77247291   -2.04879980   -0.83940598
C             2.24700098   -4.44585245    0.15553708
C             2.91690662   -5.68789387   -0.03724031
C             1.95584076   -6.64603209   -0.48060482
H             2.71724645   -3.50806464    0.44498869
H             3.98077486   -5.87043467    0.10569749
H             2.14700811   -7.69407038   -0.70762059
H             0.56435479   -3.34013827   -0.64992473
C             0.85943669   -4.58940807   -0.20244068
C            -2.10139105   -1.37340782    1.26166249
O            -2.78384309   -3.68185129    1.54239309
C             2.62299078   -3.50847040   -3.03744959
C             3.56391701   -4.57771118   -3.13960611
C             2.86749476   -5.73846836   -3.59557205
C             1.49495215   -5.38388422   -3.78250555
C             1.34451989   -4.00625859   -3.43791347
H             2.82390039   -2.50280669   -2.67636932
N            -0.97026889   -2.03165328    0.60746385
H            -1.74309457   -0.66294933    2.02386235
H            -1.12843356   -6.13742277   -1.72708257
H            -0.65825336   -7.64366570   -0.89191373
H             4.60265320   -4.52728369   -2.88778658
N            -1.49208690   -6.10509568    0.31430523
C            -0.96011430   -6.48812562    1.59326612
C            -2.88141556   -6.36468469    0.14592467
H            -1.12785807   -7.53999692    1.85606216
H             0.13565875   -6.24839911    1.56892239
H            -1.38216008   -5.78706345    2.35880627
H            -3.12386365   -6.98826551   -0.72682385
H            -3.31275047   -6.80639270    1.07367065
H            -3.39697018   -5.37283847    0.01497534
C            -2.97652974   -0.61398400    0.27788859
C            -3.83621947    0.43539251    0.92153040
C            -3.08665476    1.49566283    1.64321802
H            -2.41344822   -0.20807892   -0.58903218
H            -3.69070402   -1.36334137   -0.17598562
H            -4.58532908   -0.02985639    1.59460159
H            -4.43639795    0.89758308    0.09449760
H            -3.35188285    1.48318006    2.72200853
H            -1.98978231    1.46171222    1.49331446
H            -3.40080408    2.51174633    1.27843852
O             0.00000000    0.00000000    0.00000000
C             2.40555702   -0.00000000   -0.00000000
C             1.12477966    0.52680977   -0.61268350
C             1.12396929    0.29554799   -2.10881593
C             1.09532837    2.02351969   -0.37847394
H             2.54491719    0.55931741    0.96579945
H             3.25050003    0.18419726   -0.69180673
H             2.26843548   -1.08138739    0.23741491
H             2.19866110    0.19535830   -2.41821814
H             0.73905390    1.18487785   -2.64761430
H             0.63147211   -0.64688369   -2.39508406
H             1.99127256    2.53364007   -0.80334610
H             0.98932583    2.17540391    0.71155640
H             0.15669605    2.39382151   -0.84108166



