%chk=rp_56_1.chk
%mem=300GB
%nprocshared=68
#p opt=(calcfc,ts,noeigen,maxstep=5) freq b3lyp def2svp em=gd3bj  

Freeze index  [11, 18]  [18, 19]  [3, 19]  [3, 33]  [3, 28]  [3, 21] // Local index  3  18  20  33  (20,)  [11, 18]  [18, 19]

0 1
Fe            2.04819339   -5.10152437   -1.72227150
C            -2.95392490   -2.40983195    2.01718369
Pd           -1.08639257   -4.00632107    0.60434152
C            -0.66130157   -6.55562055   -0.69186681
H             3.30093828   -6.79516678   -3.62415840
H             0.70052122   -6.13084898   -3.99223172
H             0.41559872   -3.50468746   -3.36658821
C            -0.04959626   -1.41717971   -0.07444387
O            -3.77726574   -2.09035714    2.84966067
C             0.70443508   -5.98625868   -0.49624086
O             0.77247948   -2.06449190   -0.79999411
C             2.24702794   -4.44203527    0.24069101
C             2.91693013   -5.68753397    0.07173481
C             1.95587909   -6.65400630   -0.35318728
H             2.71725813   -3.49887447    0.51211695
H             3.98080758   -5.86730772    0.21814899
H             2.14705089   -7.70619550   -0.56008722
H             0.56437045   -3.35196993   -0.58581533
C             0.85946448   -4.59243645   -0.11447909
C            -2.10138978   -1.34899192    1.28773937
O            -2.78383666   -3.65163914    1.61264456
C             2.62301120   -3.56600296   -2.96967587
C             3.56395174   -4.63699369   -3.05132486
C             2.86753252   -5.80627685   -3.48495814
C             1.49498398   -5.45534793   -3.67865889
C             1.34454128   -4.07137484   -3.36053269
H             2.82391129   -2.55360511   -2.62792641
N            -0.97026421   -2.01963966    0.64627097
H            -1.74309848   -0.62405840    2.03618525
H            -1.12839756   -6.16938513   -1.60918580
H            -0.65821151   -7.65935273   -0.74532138
H             4.60268353   -4.58174130   -2.80050632
N            -1.49206634   -6.09795565    0.43119958
C            -0.96008681   -6.45640916    1.71726810
C            -2.88138654   -6.36072908    0.26782065
H            -1.12782434   -7.50305294    2.00016702
H             0.13568428   -6.21718719    1.68833999
H            -1.38213485   -5.74081653    2.46923590
H            -3.12382607   -7.00091427   -0.59281677
H            -3.31272232   -6.78459175    1.20386151
H            -3.39694030   -5.37157531    0.11789535
C            -2.97653234   -0.60855973    0.28959457
C            -3.41185068   -1.20894115   -0.86824074
C            -4.21476682   -0.52322804   -1.77973576
C            -4.59887621    0.78041241   -1.54979989
C            -4.15809020    1.37496424   -0.38657981
C            -3.35785298    0.69449599    0.52391529
H            -3.13631987   -2.23042090   -1.09227388
H            -4.55358291   -1.01447405   -2.69705585
H            -5.22189502    1.30851918   -2.25971912
H            -4.45724059    2.40368018   -0.19841222
H            -3.01972137    1.18995846    1.44323708
O             0.00000000    0.00000000    0.00000000
C             2.40555702   -0.00000000   -0.00000000
C             1.12477966    0.51497533   -0.62266364
C             1.12396929    0.25509320   -2.11409099
C             1.09532837    2.01589753   -0.41717093
H             2.54491719    0.57771748    0.95490684
H             3.25050003    0.17090987   -0.69520860
H             2.26843548   -1.07664055    0.25808848
H             2.19866110    0.14899439   -2.42151699
H             0.73905390    1.13393758   -2.66982819
H             0.63147211   -0.69264982   -2.38225153
H             1.99127256    2.51778463   -0.85173796
H             0.98932583    2.18863661    0.66974957
H             0.15669605    2.37726878   -0.88678797



