%chk=rp_65_3.chk
%mem=300GB
%nprocshared=68
#p opt=(calcfc,ts,noeigen,maxstep=5) freq b3lyp def2svp em=gd3bj  

Freeze index  [11, 18]  [18, 19]  [3, 19]  [3, 36]  [3, 28]  [3, 21] // Local index  3  18  20  36  (20,)  [11, 18]  [18, 19]

0 1
Fe            2.04813308   -4.60279723   -2.79397415
C            -2.95390828   -2.79191081    1.44277964
Pd           -1.08639907   -4.04166318   -0.28440361
C            -0.66136389   -6.24668450   -2.10564456
H             3.30083290   -5.84063759   -5.01960716
H             0.70043113   -5.11200581   -5.23380610
H             0.41553269   -2.68562329   -4.05020880
C            -0.04959626   -1.36678881   -0.38187506
O            -3.77723650   -2.66177963    2.32492457
C             0.70438875   -5.73373365   -1.79051335
O             0.77244992   -1.84018466   -1.23119878
C             2.24699586   -4.38754368   -0.73440135
C             2.91688534   -5.56616211   -1.17109010
C             1.95581862   -6.41661940   -1.79663867
H             2.71725082   -3.52633457   -0.26371791
H             3.98076501   -5.77355656   -1.06743627
H             2.14698111   -7.39830501   -2.22814172
H             0.56436495   -3.14337483   -1.30312215
C             0.85942936   -4.45680854   -1.11382157
C            -2.10138290   -1.59747273    0.96237511
O            -2.78384247   -3.91553343    0.77702985
C             2.62294212   -2.83209461   -3.67625784
C             3.56388621   -3.85947200   -3.98965687
C             2.86744494   -4.90593871   -4.66799235
C             1.49489362   -4.52120109   -4.78042127
C             1.34446803   -3.23999686   -4.16795522
H             2.82386788   -1.91865842   -3.12185670
N            -0.97026887   -2.11198779    0.19002358
H            -1.74306925   -1.05331628    1.85097103
H            -1.12846181   -5.66958940   -2.91657608
H             4.62071671   -3.86027994   -3.72836732
C            -0.65713116   -7.71227217   -2.50866484
H            -0.19427589   -8.31796952   -1.70011427
H            -1.72033875   -8.04013810   -2.62126206
H            -0.11317152   -7.84204076   -3.47005251
N            -1.49210390   -6.04510848   -0.90976663
C            -0.96011530   -6.67555089    0.26708820
C            -2.88143584   -6.26590215   -1.12652866
H            -1.12784532   -7.75872090    0.31477847
H             0.13564986   -6.43579120    0.29104536
H            -1.38215125   -6.14128004    1.15707945
H            -3.12388215   -6.70285971   -2.10612426
H            -3.31274917   -6.88379583   -0.30554107
H            -3.39698906   -5.26786414   -1.05699307
C            -2.97652000   -0.65706733    0.14986293
C            -3.09193658    0.71427593    0.78898580
C            -1.78239598    1.40359082    0.94384407
C            -3.82106801    0.51316692    2.10538186
H            -2.65064525   -0.56219355   -0.91561433
H            -4.00162606   -1.08666224    0.10580128
H            -3.74138975    1.35257662    0.15640734
H            -1.53480098    1.96827593    0.01106804
H            -1.88805522    2.16611877    1.75385844
H            -0.94107898    0.76633506    1.18402550
H            -3.56564822   -0.48908094    2.53775590
H            -3.55188275    1.30717655    2.81945773
H            -4.92809273    0.52496753    1.88608399
O             0.00000000    0.00000000    0.00000000
C             2.40555702    0.00000000   -0.00000000
C             1.12477966    0.63843042   -0.49529406
C             1.12396929    0.71023581   -2.00749056
C             1.09532837    2.05834940    0.03274457
H             2.54491719    0.35543898    1.05795448
H             3.25050003    0.31848446   -0.64116522
H             2.26843548   -1.10701276    0.01694957
H             2.19866110    0.67377305   -2.33065950
H             0.73905390    1.68916455   -2.35807551
H             0.63147211   -0.15615907   -2.47598475
H             1.99127256    2.64296475   -0.28184096
H             0.98932583    1.98976303    1.13116656
H             0.15669605    2.51348250   -0.34670661



