%chk=rp_64_1.chk
%mem=300GB
%nprocshared=68
#p opt=(calcfc,ts,noeigen,maxstep=5) freq b3lyp def2svp em=gd3bj  

Freeze index  [11, 18]  [18, 19]  [3, 19]  [3, 33]  [3, 28]  [3, 21] // Local index  3  18  20  33  (20,)  [11, 18]  [18, 19]

0 1
Fe            1.45622960   -5.07612873   -2.30200182
C            -2.10371467   -2.44686338    2.86169019
Pd           -0.77108795   -4.02003665    0.91698959
C            -0.75061957   -6.56696344   -0.45140058
H             2.05028150   -6.75717643   -4.51020770
H            -0.53876632   -6.13281325   -4.01427312
H            -0.64518479   -3.50913514   -3.32553490
C            -0.04959626   -1.41799749   -0.05677444
O            -2.61747004   -2.13693963    3.91665696
C             0.59600553   -5.97671506   -0.70810014
O             0.50257775   -2.05539337   -1.01076176
C             2.27063602   -4.40732929   -0.50837194
C             2.86836528   -5.64328044   -0.88750056
C             1.83620236   -6.62530940   -0.97959785
H             2.78914655   -3.45638766   -0.40240765
H             3.92483730   -5.80673053   -1.09418841
H             1.96586821   -7.67521344   -1.23910626
H             0.39463529   -3.34510330   -0.74290051
C             0.84531415   -4.57949966   -0.39480977
C            -1.54982089   -1.37585604    1.89709235
O            -2.05517613   -3.68733003    2.42171162
C             1.57234840   -3.53632065   -3.66573825
C             2.45211123   -4.59346759   -4.04985097
C             1.67049525   -5.77438555   -4.23633084
C             0.30413046   -5.44454791   -3.97402111
C             0.24401912   -4.06192457   -3.62191810
H             1.85785070   -2.51993577   -3.40582897
N            -0.67770196   -2.03171675    0.92243929
H            -0.97926923   -0.64322949    2.49021581
H            -1.49563656   -6.19072431   -1.16709182
H            -0.74833065   -7.67069494   -0.50486380
H             3.51508439   -4.52195419   -4.14921316
N            -1.17928167   -6.11801918    0.88110884
C            -0.25378352   -6.46430936    1.92466222
C            -2.54240326   -6.40196501    1.17648879
H            -0.30490110   -7.51240673    2.24485690
H             0.76968552   -6.20892170    1.54249168
H            -0.42006313   -5.75261243    2.77406417
H            -3.04102563   -7.04849217    0.43981942
H            -2.64056062   -6.82911591    2.20106645
H            -3.09362269   -5.42107721    1.20349527
C            -2.71235909   -0.65179685    1.23782169
S            -2.25824610    0.99327197    0.69002215
C            -1.91636142    2.15187735    2.01160055
C            -1.55335187    3.48115253    1.38195510
C            -1.52274284    4.61187937    2.15567401
C            -1.18398308    5.80747006    1.56711544
C            -0.87521404    5.89504043    0.22167923
C            -0.91446024    4.74356523   -0.53159548
C            -1.25313769    3.54547237    0.05174210
C            -0.81010518    1.75936926    2.90813673
C             0.48728248    2.21326648    2.63612122
C             1.57243594    1.89520506    3.42181185
C             1.38813611    1.09163371    4.53482203
C             0.10908534    0.63539173    4.81496421
C            -0.97782862    0.96038273    4.01701725
C            -3.18477810    2.44813522    2.74534878
C            -4.35162122    2.37020200    2.02427933
C            -5.56611344    2.63899124    2.64155020
C            -5.60095105    2.98809232    3.99147012
C            -4.43386896    3.05950675    4.68658488
C            -3.20770760    2.78981763    4.07134444
H            -3.61456169   -0.65297201    1.88883377
H            -3.00010397   -1.23325526    0.33640941
H            -1.75238878    4.59635177    3.19488781
H            -1.13676688    6.75208673    2.11219683
H            -0.60637968    6.81599296   -0.26046152
H            -0.66697002    4.82804653   -1.59918239
H            -1.28341461    2.64851067   -0.54271084
H             0.65984427    2.84588917    1.76966867
H             2.56994761    2.26739771    3.17781383
H             2.24345140    0.84825764    5.14394646
H            -0.05945494    0.01529649    5.66606122
H            -1.97021821    0.58786017    4.24277404
H            -4.39505678    2.10123916    0.95908698
H            -6.46870107    2.57605633    2.07055634
H            -6.57615329    3.18450553    4.40679187
H            -4.48668529    3.33338089    5.74248916
H            -2.32241768    2.86956587    4.68941841
O             0.00000000    0.00000000    0.00000000
C             2.40555702    0.00000000    0.00000000
C             1.12477966    0.50717449   -0.62903389
C             1.12396929    0.22872347   -2.11710624
C             1.09532837    2.01054134   -0.44226456
H             2.54491719    0.58957451    0.94763202
H             3.25050003    0.16223155   -0.69728481
H             2.26843548   -1.07334011    0.27148762
H             2.19866110    0.11880116   -2.42318595
H             0.73905390    1.10057291   -2.68375414
H             0.63147211   -0.72228827   -2.37343334
H             1.99127256    2.50697303   -0.88305333
H             0.98932583    2.19681432    0.64241850
H             0.15669605    2.36603125   -0.91634923



