%chk=rp_62_1.chk
%mem=300GB
%nprocshared=68
#p opt=(calcfc,ts,noeigen,maxstep=5) freq b3lyp def2svp em=gd3bj  

Freeze index  [11, 18]  [18, 19]  [3, 19]  [3, 33]  [3, 28]  [3, 21] // Local index  3  18  20  33  (20,)  [11, 18]  [18, 19]

0 1
Fe            2.04815757    5.17838531    1.47523316
C            -2.95392956    2.31014715   -2.13063846
Pd           -1.08640532    3.97268077   -0.79609409
C            -0.66135342    6.58129658    0.37616791
H             3.30087636    6.96144750    3.29357383
H             0.70047246    6.31555297    3.69312432
H             0.41556133    3.66236996    3.19435278
C            -0.04959626    1.41911972    0.00628034
O            -3.77725690    1.95104473   -2.94679303
C             0.70439798    6.00320788    0.20811930
O             0.77247018    2.10055479    0.69989686
C             2.24699544    4.42538340   -0.45378467
C             2.91689154    5.67755842   -0.34485190
C             1.95583926    6.66331304    0.03315344
H             2.71724540    3.47026541   -0.67960340
H             3.98076501    5.85010504   -0.49972127
H             2.14699661    7.72423202    0.18927058
H             0.56435694    3.37625122    0.42411618
C             0.85943266    4.59265008   -0.10624900
C            -2.10138854    1.28558239   -1.35105457
O            -2.78385297    3.56995620   -1.78620371
C             2.62297537    3.70455869    2.79495479
C             3.56392187    4.77824594    2.82507145
C             2.86748073    5.96700327    3.20203952
C             1.49493776    5.62577493    3.41236951
C             1.34450661    4.22811435    3.16108486
H             2.82389453    2.67691854    2.50224248
N            -0.97027521    1.98626631   -0.74255212
H            -2.71742842    0.79869699   -0.62419138
H            -1.12843551    6.23955954    1.31097552
H            -0.65827147    7.68631378    0.37651907
H             4.60263777    4.71102285    2.57721122
N            -1.49209246    6.07020877   -0.72363475
C            -3.51438153    6.80210267   -1.68275818
C            -2.37098108    7.68987385   -2.19513820
C            -1.20845729    6.71712687   -1.95777196
C            -2.88554169    6.30044712   -0.40016541
H            -4.43938786    7.34486858   -1.54611280
H            -3.56844254    5.93205383   -2.36779571
H            -2.51342406    7.86026572   -3.25979709
H            -2.25166556    8.59463328   -1.58394165
H            -0.23732596    7.19775034   -2.03978208
H            -1.31868863    5.95124828   -2.78065831
H            -3.00382887    6.99511263    0.44313068
H            -3.38820417    5.35022667   -0.12950127
C            -1.60711674    0.23709873   -2.33431190
C            -2.77846995   -0.67370074   -2.64414299
C            -1.06566105    0.88843549   -3.58674818
C            -0.58152786   -0.09967422   -4.59501681
H            -3.61425406   -0.01296113   -2.94773420
H            -2.52297584   -1.42659972   -3.41247937
H            -3.01476711   -1.21672594   -1.69105859
H            -0.78292423   -0.30017024   -1.84472844
H            -0.20292385    1.51028725   -3.27833729
H            -1.80146344    1.59001349   -4.04181199
H            -0.14511160    0.46984080   -5.44190182
H             0.25993823   -0.68585480   -4.15992747
H            -1.36265981   -0.78648176   -4.96331750
O             0.00000000    0.00000000    0.00000000
C             2.40555702   -0.00000000    0.00000000
C             1.12477966   -0.48446969    0.64668286
C             1.12396929   -0.15324332    2.12390436
C             1.09532837   -1.99353046    0.51352774
H             2.54491719   -0.62292174   -0.92605240
H             3.25050003   -0.13731657    0.70261607
H             2.26843548    1.06299971   -0.30950951
H             2.19866110   -0.03249906    2.42587874
H             0.73905390   -1.00437696    2.72121736
H             0.63147211    0.80628729    2.34622824
H             1.99127256   -2.47396269    0.97170242
H             0.98932583   -2.21828292   -0.56384001
H             0.15669605   -2.33192536    0.99996195



