%chk=rp_63_1.chk
%mem=300GB
%nprocshared=68
#p opt=(calcfc,ts,noeigen,maxstep=5) freq b3lyp def2svp em=gd3bj  

Freeze index  [11, 18]  [18, 19]  [3, 19]  [3, 33]  [3, 28]  [3, 21] // Local index  3  18  20  33  (20,)  [11, 18]  [18, 19]

0 1
Fe            2.04815780   -5.07170980   -1.80823095
C            -2.95393106   -2.44355234    1.97618490
Pd           -1.08641527   -4.01595373    0.53656399
C            -0.66135056   -6.54299280   -0.80253305
H             3.30088586   -6.73299073   -3.73846434
H             0.70047235   -6.06253136   -4.09525549
H             0.41557208   -3.44730596   -3.42532562
C            -0.04959626   -1.41571957   -0.09837847
O            -3.77726459   -2.13818467    2.81394006
C             0.70439680   -5.97702877   -0.59732273
O             0.77246948   -2.05069311   -0.83476965
C             2.24700060   -4.44549251    0.16559157
C             2.91690085   -5.68795737   -0.02438241
C             1.95584300   -6.64709592   -0.46556901
H             2.71724177   -3.50704648    0.45292451
H             3.98076352   -5.87018655    0.11897095
H             2.14700414   -7.69564683   -0.69022017
H             0.56435134   -3.34159103   -0.64237572
C             0.85943036   -4.58985737   -0.19206063
C            -2.10139254   -1.37054533    1.26475664
O            -2.78384787   -3.67835586    1.55071356
C             2.62298037   -3.51533445   -3.02951189
C             3.56391918   -4.58480238   -3.12924943
C             2.86749767   -5.74658240   -3.58258262
C             1.49494858   -5.39243048   -3.77031700
C             1.34451253   -4.01402583   -3.42885140
H             2.82389978   -2.50885673   -2.67070793
N            -0.97027108   -2.03027152    0.61205979
H            -1.74308903   -0.65836449    2.02534820
H            -1.12844105   -6.14131386   -1.71319945
H            -0.65826667   -7.64566644   -0.87462594
H             4.60265185   -4.53380238   -2.87753846
N            -1.49208914   -6.10436079    0.32810906
C            -0.96012557   -6.48450354    1.60794022
C            -2.88142547   -6.36433558    0.16031302
H            -1.12786286   -7.53577521    1.87311186
H             0.13564913   -6.24483753    1.58304708
H            -1.38216486   -5.78170995    2.37187923
H            -3.12386990   -6.98988350   -0.71101740
H            -3.31275861   -6.80394438    1.08905484
H            -3.39697379   -5.37278293    0.02713157
C            -2.97653138   -0.61334967    0.27927313
C            -2.37082781    0.74002754    0.06172949
C            -4.36353817   -0.55352863    0.87389563
C            -3.07074563   -1.30850974   -1.05108900
H            -1.51556708    0.94082725    0.76325872
H            -3.09632165    1.57497845    0.23137637
H            -1.90533860    0.81437622   -0.96185063
H            -4.98843324   -1.37456915    0.44458496
H            -4.86168009    0.39191955    0.65301214
H            -4.35822436   -0.69122991    1.97349144
H            -2.75814328   -2.35333687   -0.90776482
H            -4.11750947   -1.32315168   -1.45174555
H            -2.41649218   -0.86491323   -1.82496766
O             0.00000000    0.00000000    0.00000000
C             2.40555702    0.00000000   -0.00000000
C             1.12477966    0.52542259   -0.61387352
C             1.12396929    0.29077730   -2.10947904
C             1.09532837    2.02265844   -0.38304997
H             2.54491719    0.56150052    0.96453186
H             3.25050003    0.18263199   -0.69222160
H             2.26843548   -1.08084762    0.23986030
H             2.19866110    0.18988802   -2.41865384
H             0.73905390    1.17888618   -2.65028761
H             0.63147211   -0.65229948   -2.39361474
H             1.99127256    2.53181650   -0.80907489
H             0.98932583    2.17700782    0.70663402
H             0.15669605    2.39191294   -0.84649410



