%chk=rp_60_1.chk
%mem=300GB
%nprocshared=68
#p opt=(calcfc,ts,noeigen,maxstep=5) freq b3lyp def2svp em=gd3bj  

Freeze index  [11, 18]  [18, 19]  [3, 19]  [3, 45]  [3, 28]  [3, 21] // Local index  3  18  20  45  (20,)  [11, 18]  [18, 19]

0 1
Fe            2.04818397   -5.07508563   -1.79872349
C            -2.95393375   -2.43988204    1.98075328
Pd           -1.08638718   -4.01496546    0.54407375
C            -0.66131120   -6.54448867   -0.79028889
H             3.30092647   -6.73995648   -3.72584778
H             0.70052954   -6.07017357   -4.08389061
H             0.41560515   -3.45371840   -3.41886230
C            -0.04959626   -1.41590155   -0.09572363
O            -3.77727563   -2.13295175    2.81792675
C             0.70443308   -5.97812201   -0.58612836
O             0.77246977   -2.05224745   -0.83092839
C             2.24700671   -4.44516626    0.17392096
C             2.91692046   -5.68799417   -0.01371690
C             1.95588195   -6.64796384   -0.45311512
H             2.71725515   -3.50619386    0.45950824
H             3.98078349   -5.86994165    0.12998456
H             2.14704140   -7.69691749   -0.67579869
H             0.56438560   -3.34279758   -0.63611679
C             0.85945594   -4.59020104   -0.18344977
C            -2.10138294   -1.36820517    1.26731598
O            -2.78384064   -3.67546897    1.55760168
C             2.62301175   -3.52099372   -3.02290307
C             3.56395175   -4.59062841   -3.12062878
C             2.86752545   -5.75325712   -3.57179809
C             1.49497948   -5.39946430   -3.76020274
C             1.34454998   -4.02042939   -3.42131686
H             2.82390955   -2.51383848   -2.66599643
N            -0.97026752   -2.02914121    0.61586073
H            -1.74310202   -0.65457444    2.02657480
H            -1.12839029   -6.14451828   -1.70168782
H            -0.65822631   -7.64730688   -0.86030215
Si            5.37928938   -4.50067408   -2.68089911
C             5.91475051   -6.18840405   -2.15884767
C             6.27093746   -3.88899136   -4.19079871
C             5.64502654   -3.33183225   -1.24045770
H             5.04401992   -6.71159633   -1.67575670
H             6.25421061   -6.81553761   -2.99551391
H             6.73587709   -6.18433240   -1.40752741
H             6.50619624   -2.80127611   -4.06696588
H             7.21970777   -4.40384785   -4.37153786
H             5.65777503   -3.97384855   -5.11870634
H             4.78358903   -2.65946699   -1.14281678
H             6.60305114   -2.79256365   -1.46111506
H             5.81561088   -3.86678044   -0.29238799
N            -1.49206327   -6.10376208    0.33953286
C            -0.96009438   -6.48150485    1.62007173
C            -2.88139009   -6.36405561    0.17222434
H            -1.12781547   -7.53228989    1.88719368
H             0.13567426   -6.24187971    1.59474563
H            -1.38213905   -5.77728982    2.38270242
H            -3.12382364   -6.99122932   -0.69794564
H            -3.31272512   -6.80194074    1.10178018
H            -3.39694248   -5.37276453    0.03718546
C            -2.97652756   -0.61285036    0.28041546
C            -3.24545173   -1.56007719   -0.85426363
C            -4.18867033   -0.04864498    0.92072563
H            -3.20094496   -2.63976904   -0.53129888
H            -2.40109095   -1.47199713   -1.59726567
H            -4.19421490   -1.39749385   -1.36487270
H            -2.35848060    0.22985498   -0.11894512
H            -5.13913065   -0.53809938    0.64770261
H            -4.06100629   -0.04685803    2.03329698
H            -4.32109206    1.03370759    0.64645795
O             0.00000000    0.00000000    0.00000000
C             2.40555702    0.00000000    0.00000000
C             1.12477966    0.52427057   -0.61485768
C             1.12396929    0.28682123   -2.11002057
C             1.09532837    2.02193661   -0.38684206
H             2.54491719    0.56330816    0.96347728
H             3.25050003    0.18133366   -0.69256284
H             2.26843548   -1.08039595    0.24188661
H             2.19866110    0.18535239   -2.41900565
H             0.73905390    1.17391446   -2.65249352
H             0.63147211   -0.65678668   -2.39238738
H             1.99127256    2.53029493   -0.81382096
H             0.98932583    2.17832902    0.70255060
H             0.15669605    2.39032144   -0.85097777



