%chk=rp_6_2.chk
%mem=300GB
%nprocshared=68
#p opt=(calcfc,ts,noeigen,maxstep=5) freq b3lyp def2svp em=gd3bj  

Freeze index  [11, 18]  [18, 19]  [3, 19]  [3, 32]  [3, 28]  [3, 21] // Local index  3  18  20  32  (20,)  [11, 18]  [18, 19]

-1 1
Fe            0.65781711    4.42100159    3.63440142
C            -4.10527895    0.15794073    1.31293732
Pd           -2.52617730    2.14832150    2.56890771
C            -2.26830740    3.83421187    4.90365073
H             2.15838314    5.92898941    5.51303531
H             1.02744731    3.60411011    6.32223502
H             1.35060798    1.78467714    4.33361307
C            -0.48429175    0.91241483    0.97435142
O            -5.08413014   -0.40232540    0.86470893
C            -1.34869620    4.43000515    3.89023378
O             0.30260214    1.72344374    1.56108392
C            -0.34750756    4.62482479    1.82458212
C            -0.25569881    5.88643344    2.47917436
C            -0.90479164    5.77708082    3.74602852
H             0.09353220    4.37456037    0.86166267
H             0.24267594    6.77378304    2.09208846
H            -1.01659790    6.57015526    4.48426844
H            -0.43503231    2.51536054    2.31972985
C            -1.02053317    3.68652277    2.68522109
C            -2.68787208   -0.17547268    0.79901391
O            -4.16045063    1.01374628    2.31255425
C             2.43101486    3.43792802    3.26898241
C             2.69356467    4.78865030    3.65070306
C             2.14346607    4.99585325    4.95253341
C             1.54623265    3.76869218    5.37908306
C             1.72441904    2.80661888    4.33892626
H             2.67972011    2.97517294    2.31709066
N            -1.77479833    0.88460536    1.22704409
H            -2.72608922   -0.22763611   -0.30094507
H            -2.02584424    3.88997012    5.94433114
H             3.19603478    5.53901313    3.04272885
O            -3.46492624    3.19336885    4.48672564
C            -2.27655436   -1.54067976    1.32572313
C            -1.25036533   -2.11038573    0.39394895
C            -3.53019789   -2.37856749    1.41092111
C            -1.67462404   -1.46357657    2.70184626
H            -1.12583045   -1.48744243   -0.53361184
H            -1.51289515   -3.13555554    0.03010158
H            -0.22712785   -2.10169828    0.86599696
H            -3.92675524   -2.35018927    2.45535322
H            -3.34103273   -3.42279735    1.15672832
H            -4.33518861   -2.00326010    0.74817013
H            -1.96276939   -0.49738338    3.14159071
H            -2.05749540   -2.26906328    3.38084832
H            -0.56967086   -1.51636546    2.70074679
O             0.00000000    0.00000000    0.00000000
C             1.40115125    0.00000000   -0.00000000
C             1.85332832   -0.97607667   -1.04238404
C             3.31426035   -1.08305201   -1.15666586
C             4.30909480   -1.29857848   -0.17654036
C             5.60714318   -1.34988805   -0.60248351
C             5.97753546   -1.20051597   -1.94018280
C             4.98214893   -0.99214973   -2.86686597
C             3.64263867   -0.93292834   -2.47386281
C             2.41225100   -0.72688669   -3.23729355
C             2.21220386   -0.52471982   -4.61203779
C             0.95250019   -0.34918948   -5.13092975
C            -0.12415553   -0.37453824   -4.27405967
C             0.06816140   -0.57197064   -2.92959946
C             1.34991167   -0.75425956   -2.37431400
H             1.78345365   -0.38889541    0.98454278
H             1.75798689    1.01732961   -0.14035185
H             1.49986303   -1.98706592   -0.66691016
H             3.98803865   -1.40907698    0.84223806
H             6.40434382   -1.51550961    0.13035471
H             7.00361622   -1.24682267   -2.23417345
H             5.20622864   -0.87032182   -3.90941929
H             3.08702547   -0.51099446   -5.25727547
H             0.74964876   -0.19078755   -6.17940215
H            -1.13302424   -0.24080823   -4.63882075
H            -0.76357885   -0.59918926   -2.21104126



