%chk=rp_7_1.chk
%mem=300GB
%nprocshared=68
#p opt=(calcfc,ts,noeigen,maxstep=5) freq b3lyp def2svp em=gd3bj  

Freeze index  [11, 18]  [18, 19]  [3, 19]  [3, 33]  [3, 28]  [3, 21] // Local index  3  18  20  33  (20,)  [11, 18]  [18, 19]

0 1
Fe            2.04819910   -5.09176315   -1.75088864
C            -2.95392346   -2.42112402    2.00362140
Pd           -1.08638718   -4.00965281    0.58183847
C            -0.66129768   -6.55162594   -0.72867757
H             3.30093443   -6.77470470   -3.66225774
H             0.70053986   -6.10832391   -4.02658836
H             0.41561094   -3.48571306   -3.38621456
C            -0.04959626   -1.41673992   -0.08239061
O            -3.77727128   -2.10633279    2.83787575
C             0.70443964   -5.98337626   -0.52985471
O             0.77248480   -2.05996904   -0.81157275
C             2.24702423   -4.44331928    0.21574691
C             2.91692360   -5.68784841    0.03980371
C             1.95588071   -6.65191133   -0.39054915
H             2.71727141   -3.50170115    0.49247680
H             3.98080092   -5.86844812    0.18520364
H             2.14704996   -7.70291780   -0.60334766
H             0.56438909   -3.34862680   -0.60463958
C             0.85945714   -4.59172718   -0.14025362
C            -2.10138777   -1.35620212    1.28013996
O            -2.78382757   -3.66064362    1.59211005
C             2.62301678   -3.54926196   -2.98963942
C             3.56397093   -4.61978206   -3.07728901
C             2.86752750   -5.78660945   -3.51750934
C             1.49499293   -5.43459729   -3.70923338
C             1.34455225   -4.05242394   -3.38333590
H             2.82392529   -2.53880666   -2.64221604
N            -0.97026536   -2.02324085    0.63493436
H            -1.74310671   -0.63548076    2.03264421
H            -1.12839908   -6.16024360   -1.64380358
H            -0.65822147   -7.65504781   -0.78831230
Br            5.46667111   -4.52116572   -2.61731158
N            -1.49206168   -6.10028665    0.39695044
C            -0.96009472   -6.46595575    1.68098563
C            -2.88139190   -6.36214154    0.23209615
H            -1.12782106   -7.51417937    1.95799571
H             0.13567914   -6.22658078    1.65340468
H            -1.38214027   -5.75460000    2.43695288
H            -3.12382625   -6.99749535   -0.63213062
H            -3.31271674   -6.79126310    1.16572505
H            -3.39695736   -5.37217646    0.08772805
C            -2.97651149   -0.61017370    0.28616665
C            -3.24542270   -1.56803702   -0.83955097
C            -4.18865524   -0.03997043    0.92112587
H            -3.20092207   -2.64464280   -0.50643752
H            -2.40105310   -1.48694775   -1.58334402
H            -4.19418352   -1.41026903   -1.35167517
H            -2.35845908    0.22873395   -0.12109829
H            -5.13911633   -0.53197707    0.65271498
H            -4.06100608   -0.02770838    2.03362901
H            -4.32108373    1.03975464    0.63668389
O             0.00000000    0.00000000    0.00000000
C             2.40555702   -0.00000000    0.00000000
C             1.12477966    0.51845930   -0.61976573
C             1.12396929    0.26694556   -2.11262711
C             1.09532837    2.01820543   -0.40585869
H             2.54491719    0.57235302    0.95813181
H             3.25050003    0.17480610   -0.69423916
H             2.26843548   -1.07807104    0.25204634
H             2.19866110    0.16257255   -2.42064331
H             0.73905390    1.14889284   -2.66342679
H             0.63147211   -0.67927864   -2.38609863
H             1.99127256    2.52252180   -0.83760417
H             0.98932583    2.18484606    0.68201348
H             0.15669605    2.38220474   -0.87344168



