%chk=rp_8_1.chk
%mem=300GB
%nprocshared=68
#p opt=(calcfc,ts,noeigen,maxstep=5) freq b3lyp def2svp em=gd3bj  

Freeze index  [11, 18]  [18, 19]  [3, 19]  [3, 33]  [3, 28]  [3, 21] // Local index  3  18  20  33  (20,)  [11, 18]  [18, 19]

0 1
Fe           -3.99832157   -4.03682480    1.39152002
C             2.29335805   -2.08429501    3.08039218
Pd           -0.25153379   -3.28626565    2.74667921
C            -2.30641519   -4.86256304    4.03218269
H            -6.68291567   -4.88433389    1.75164104
H            -5.54239826   -3.33964357    3.66268364
H            -4.08284801   -1.41828795    2.41871181
C            -0.50737150   -1.17818573    0.81538491
O             3.46958740   -1.96923243    3.35646065
C            -2.62079557   -4.92806917    2.57459506
O            -1.69588762   -1.61165045    0.67116106
C            -2.27351386   -4.52070879    0.33389482
C            -3.11533370   -5.66388579    0.44832991
C            -3.30488215   -5.93792282    1.83657615
H            -1.98366781   -4.03508593   -0.59589076
H            -3.55704008   -6.21897044   -0.37772029
H            -3.89031196   -6.75350503    2.25914698
H            -1.81674817   -2.69728241    1.41517551
C            -1.95112964   -4.02971164    1.64883640
C             1.61304434   -1.13614567    2.06920884
O             1.49682605   -2.95103931    3.67113183
C            -4.82669356   -2.36191570    0.52392615
C            -5.67202998   -3.49168614    0.30468166
C            -6.05730289   -4.01039107    1.57856193
C            -5.45475713   -3.19511864    2.58694085
C            -4.69497263   -2.17683755    1.93497310
H            -4.32928366   -1.76882852   -0.23958810
N             0.33933819   -1.72763812    1.65871043
H             2.28187134   -1.02513241    1.20062765
H            -2.72034227   -3.95292039    4.49049050
H            -2.69173017   -5.73523632    4.58992747
H            -5.94342453   -3.89854960   -0.64702006
N            -0.84480243   -4.77445068    4.16188793
C            -0.14957243   -5.86190370    3.52977998
C            -0.39824253   -4.46782313    5.47813933
H            -0.15893023   -6.79796457    4.10190212
H            -0.62187169   -6.00080166    2.52159526
H             0.89109439   -5.51266813    3.30463254
H            -1.18856541   -4.49194329    6.24242012
H             0.44761154   -5.13220927    5.76966232
H             0.02850261   -3.42661857    5.45611414
C             1.43604657    0.23043916    2.71069737
C             0.34475188    0.07781736    3.73189177
C             2.71053755    0.77355740    3.23825058
H             0.27195186   -0.97584041    4.12753180
H            -0.64679271    0.23546365    3.21735797
H             0.42207535    0.75490820    4.58211284
H             1.05986377    0.91576974    1.91043379
H             2.79274469    0.80316704    4.33818895
H             3.57148478    0.20564998    2.80193410
H             2.86634232    1.83412230    2.89892053
C             0.00000000    0.00000000    0.00000000
H             1.11123978    0.00000000    0.00000000
H            -0.34606400   -0.13815397   -1.05440168
H            -0.40221157    0.95117132    0.41288058



