%chk=rp_9_1.chk
%mem=300GB
%nprocshared=68
#p opt=(calcfc,ts,noeigen,maxstep=5) freq b3lyp def2svp em=gd3bj  

Freeze index  [11, 18]  [18, 19]  [3, 19]  [3, 33]  [3, 28]  [3, 21] // Local index  3  18  20  33  (20,)  [11, 18]  [18, 19]

0 1
Fe            0.25072597    3.20955848   -4.77731990
C            -3.69936601    2.11985218    0.65031549
Pd           -2.43657896    2.92938929   -1.75439512
C            -2.15525277    5.07934372   -3.66706688
H             1.67205433    4.66657712   -6.75517032
H             1.30600439    5.79940071   -4.32172569
H             1.67531676    3.87462600   -2.44338554
C            -0.49636088    1.00909182   -0.86704070
O            -4.58152900    1.90924143    1.45678611
C            -1.61382070    3.87165149   -4.35702285
O             0.16894510    1.38274021   -1.88635644
C            -1.09699142    1.63748106   -4.57755461
C            -1.18896397    2.19914564   -5.88319085
C            -1.54174494    3.57609282   -5.74983460
H            -0.79861659    0.61733791   -4.34385052
H            -1.00046441    1.67658944   -6.81966663
H            -1.69933703    4.28341670   -6.56304291
H            -0.58045862    2.23869926   -2.55903798
C            -1.35020102    2.66124933   -3.59680084
C            -2.36659502    1.34180036    0.70189724
O            -3.76875492    3.06807516   -0.26112474
C             2.10632279    2.53409327   -4.19013870
C             2.10406034    2.78975043   -5.59502413
C             1.77612612    4.16562378   -5.79427455
C             1.58253448    4.76305892   -4.50968173
C             1.78692037    3.75492838   -3.51916940
H             2.27462540    1.57424866   -3.70799119
N            -1.67087069    1.52267327   -0.57244282
H            -2.59798976    0.27689716    0.86464971
H            -1.39421270    5.55048660   -3.02858763
H            -2.53071576    5.84068494   -4.37450843
H             2.28450430    2.06943249   -6.36540577
N            -3.23464940    4.62858544   -2.77676987
C            -4.27574367    3.91147879   -3.46039433
C            -3.69476607    5.62776567   -1.87349501
H            -4.97706084    4.54964266   -4.01225199
H            -3.76628022    3.18470081   -4.14671297
H            -4.79382204    3.26584713   -2.70515169
H            -3.29384050    6.63335773   -2.06682882
H            -4.80863810    5.64956808   -1.84755922
H            -3.37391897    5.32161655   -0.83907237
C            -1.54776291    1.83633039    1.88315094
C            -1.44465685    3.34333635    1.75697053
C            -2.19244287    1.43283310    3.18989983
C            -1.43574553    1.90928951    4.38478371
H            -2.48053137    3.71672769    1.63523147
H            -0.92241974    3.79435160    2.62087525
H            -0.83066255    3.54034981    0.83866374
H            -0.56555672    1.34738014    1.82121515
H            -2.20447749    0.32585201    3.21398912
H            -3.25834137    1.75170314    3.24345730
H            -1.94491873    1.51034840    5.28678421
H            -0.42062443    1.45049629    4.38340695
H            -1.34827516    3.00705534    4.45390703
O             0.00000000    0.00000000    0.00000000
C             1.41083033    0.00000000    0.00000000
C             1.94061031    1.30494163    0.45771491
C             2.20995799    2.35606928   -0.41442460
C             2.70552417    3.56979748    0.03347952
C             2.94592662    3.76423919    1.37459392
C             2.68645864    2.73621293    2.25882794
C             2.19263547    1.53057644    1.80159478
H             1.79393422   -0.22649020   -1.01512049
H             1.72408576   -0.79317204    0.71270557
H             2.01310165    2.18051330   -1.46608761
H             2.90331403    4.36795070   -0.68168557
H             3.33765042    4.73325741    1.70124061
H             2.87529943    2.88537640    3.32258431
H             1.98003595    0.70064403    2.49074593



