%chk=sp_0_2.chk
%mem=300GB
%nprocshared=68
#p opt=(calcfc,ts,noeigen,maxstep=5) freq b3lyp def2svp em=gd3bj  

Freeze index  [11, 18]  [18, 19]  [3, 19]  [3, 32]  [3, 28]  [3, 21] // Local index  3  18  20  32  (20,)  [11, 18]  [18, 19]

-1 1
Fe            1.03394911    5.18918177    2.24010587
C            -1.47576968    2.12792244   -3.27311787
Pd           -0.56571904    3.91398085   -1.25793892
C             0.72254222    6.45524520   -0.71430185
H             2.54073785    6.95021407    3.87549186
H             3.55077942    6.23427121    1.46615630
H             3.05251781    3.58820773    1.10841431
C            -0.04959626    1.41905214   -0.01520666
O            -1.87868131    1.66938541   -4.32153823
C             0.16950793    5.98741314    0.59258433
O             0.63866830    2.11185736    0.80535359
C            -0.92904815    4.53938958    2.01060159
C            -0.90627678    5.82477875    2.62306915
C            -0.25419291    6.73124550    1.73125515
H            -1.32278814    3.62899590    2.45960751
H            -1.29572945    6.07196330    3.60954129
H            -0.08164539    7.79259075    1.90512934
H             0.33877164    3.38363897    0.60282909
C            -0.25935817    4.60565651    0.73780593
C            -1.53415272    1.27826966   -1.97937759
O            -1.01939903    3.35497939   -3.14097559
C             2.81162276    4.17708958    1.99112809
C             3.06170725    5.57024179    2.17711911
C             2.52900942    5.94868584    3.44907001
C             1.95463498    4.78670459    4.04901942
C             2.12445914    3.69311362    3.14702094
H             1.76125809    2.67787650    3.28542047
N            -0.82940979    1.97926900   -0.91396710
H            -1.03396353    0.32090767   -2.19287367
H             1.60988871    7.05273458   -0.73655538
H             1.44617992    4.74975528    5.01091257
O             0.07054007    6.10677241   -1.92667878
C            -2.98831926    0.98725729   -1.64604589
C            -2.99677946   -0.31942627   -0.90472139
C            -3.63772105    2.11227136   -0.93172878
H            -2.02716053   -0.51042895   -0.36122672
H            -3.04458364   -1.15553838   -1.66062562
H            -3.81306908   -0.43030370   -0.19149555
H            -3.51675003    0.82971466   -2.61947086
H            -3.86020320    1.93062045    0.13363073
H            -3.01781546    3.03811272   -1.04424336
H            -4.62544531    2.37060421   -1.40279542
O             0.00000000    0.00000000    0.00000000
C             2.40555702   -0.00000000    0.00000000
C             1.12477966   -0.47462301    0.65394388
C             1.12396929   -0.12106865    2.12598110
C             1.09532837   -1.98552685    0.54365205
H             2.54491719   -0.63687129   -0.91651487
H             3.25050003   -0.12666282    0.70461459
H             2.26843548    1.05819172   -0.32556845
H             2.19866110    0.00423383    2.42609273
H             0.73905390   -0.96306107    2.73611228
H             0.63147211    0.84171809    2.33375166
H             1.99127256   -2.45896699    1.00904823
H             0.98932583   -2.22656551   -0.53018933
H             0.15669605   -2.31651807    1.03515400



