%chk=sp_13_1.chk
%mem=300GB
%nprocshared=68
#p opt=(calcfc,ts,noeigen,maxstep=5) freq b3lyp def2svp em=gd3bj  

Freeze index  [11, 18]  [18, 19]  [3, 19]  [3, 33]  [3, 28]  [3, 21] // Local index  3  18  20  33  (20,)  [11, 18]  [18, 19]

0 1
Fe            1.03391542    5.15167522    2.32505769
C            -1.47580651    2.18139077   -3.23772225
Pd           -0.56576867    3.93409960   -1.19346508
C             0.72247294    6.46610850   -0.60815771
H             2.54068438    6.88561354    3.98914319
H             3.55073469    6.20936046    1.56836725
H             3.05249413    3.56953720    1.16720436
C            -0.04959626    1.41911042    0.00811382
O            -1.87871388    1.74012909   -4.29352428
C             0.16945861    5.97685987    0.69087621
O             0.63865971    2.09833471    0.83993757
C            -0.92907945    4.50572535    2.08491805
C            -0.90632006    5.78088254    2.71842287
C            -0.25424148    6.70188039    1.84160549
H            -1.32280979    3.58807108    2.51890121
H            -1.29577266    6.01181562    3.70881869
H            -0.08169897    7.76021362    2.03290444
H             0.33874591    3.37327046    0.65833731
C            -0.25940063    4.59289383    0.81336544
C            -1.53417511    1.31059139   -1.95812216
O            -1.01944806    3.40612027   -3.08542755
C             2.81159961    4.14381887    2.05947606
C             3.06166538    5.53372884    2.26832689
C             2.52898142    5.89122811    3.54632250
C             1.95461627    4.71952769    4.12711004
C             2.12445102    3.64091147    3.20724682
H             1.76125169    2.62354360    3.32896366
N            -0.82941624    1.99400128   -0.88133779
H            -1.03398376    0.35688417   -2.18730419
H             1.71992656    6.04343948   -0.79501940
H             0.80264665    7.56727550   -0.64963730
H             1.45486942    4.66768003    5.07181403
N            -0.15351079    5.97393480   -1.68114295
C            -1.55810569    6.16174326   -1.36319433
C            -1.75846187    7.65127069   -1.14853048
O            -1.51887829    8.34702991   -2.30965613
C            -0.27372658    8.12795397   -2.85720306
C             0.07613372    6.66563924   -2.94726304
H            -1.86922133    5.58939804   -0.48290085
H            -2.13062992    5.86591788   -2.26002983
H            -2.81034275    7.79192952   -0.86378240
H            -1.11703814    7.98395489   -0.32109421
H             0.48054205    8.73734202   -2.34534518
H            -0.31318948    8.50537588   -3.91597727
H             1.11676956    6.58161053   -3.27997504
H            -0.65236312    6.20939258   -3.66819650
C            -2.98833576    1.01413545   -1.62960750
C            -2.99523791   -0.02371899   -0.52487683
C            -3.71173660    2.27390695   -1.21046726
C            -5.14255730    2.03514435   -0.85961683
H            -2.33943420    0.37055893    0.27621314
H            -4.02004202   -0.24468259   -0.17355208
H            -2.57190756   -0.96159449   -0.97238594
H            -3.45696977    0.64132319   -2.55103016
H            -3.68428297    2.96348732   -2.07641044
H            -3.18392364    2.80057887   -0.38299645
H            -5.60225738    3.01956782   -0.63241658
H            -5.68096209    1.65013665   -1.75563917
H            -5.28890827    1.34433893   -0.01174433
O             0.00000000    0.00000000    0.00000000
C             2.40555702    0.00000000    0.00000000
C             1.12477966   -0.48530480    0.64605639
C             1.12396929   -0.15598726    2.12370460
C             1.09532837   -1.99419227    0.51095169
H             2.54491719   -0.62172477   -0.92685644
H             3.25050003   -0.13822423    0.70243808
H             2.26843548    1.06339871   -0.30813587
H             2.19866110   -0.03563326    2.42583473
H             0.73905390   -1.00789191    2.71991745
H             0.63147211    0.80325530    2.34726800
H             1.99127256   -2.47521605    0.96850527
H             0.98932583   -2.21755259   -0.56670555
H             0.15669605   -2.33321535    0.99694829



