%chk=sp_19_2.chk
%mem=300GB
%nprocshared=68
#p opt=(calcfc,ts,noeigen,maxstep=5) freq b3lyp def2svp em=gd3bj  

Freeze index  [11, 18]  [18, 19]  [3, 19]  [3, 32]  [3, 28]  [3, 21] // Local index  3  18  20  32  (20,)  [11, 18]  [18, 19]

-1 1
Fe            1.03395451    5.18606535    2.24729564
C            -1.47571449    2.13245906   -3.27019324
Pd           -0.56568653    3.91571726   -1.25252639
C             0.72259224    6.45621912   -0.70535915
H             2.54072715    6.94482993    3.88514044
H             3.55080088    6.23220517    1.47481849
H             3.05251984    3.58664710    1.11341803
C            -0.04959626    1.41907184   -0.01324094
O            -1.87861273    1.67536442   -4.31924649
C             0.16953921    5.98658688    0.60087290
O             0.63867203    2.11072912    0.80828222
C            -0.92904782    4.53660997    2.01687050
C            -0.90628011    5.82114370    2.63112261
C            -0.25417551    6.72884278    1.74055870
H            -1.32279806    3.62559434    2.46461119
H            -1.29573841    6.06697244    3.61792051
H            -0.08162856    7.78993770    1.91591050
H             0.33879151    3.38279395    0.60751130
C            -0.25934704    4.60463012    0.74416606
C            -1.53412159    1.28101504   -1.97763595
O            -1.01934205    3.35931764   -3.13635064
C             2.81163243    4.17430643    1.99693589
C             3.06171710    5.56719022    2.18486195
C             2.52900233    5.94388530    3.45733232
C             1.95460592    4.78107537    4.05566599
C             2.12444286    3.68873718    3.15214911
H             1.76123147    2.67331647    3.28914491
N            -0.82938973    1.98053584   -0.91123745
H            -1.03393895    0.32394910   -2.19244073
H             1.60994490    7.05373016   -0.72677061
H             1.44614026    4.74279806    5.01749772
O             0.07060213    6.10942473   -1.91822611
C            -2.98829503    0.98954830   -1.64471750
C            -2.99522111   -0.03155911   -0.52448938
C            -3.71168805    2.25549668   -1.24459395
C            -5.14252374    2.02205248   -0.89021066
H            -2.33942376    0.37473026    0.27058644
H            -4.02003369   -0.24719857   -0.16989048
H            -2.57189344   -0.97606937   -0.95782532
H            -3.45692028    0.60290501   -2.56043678
H            -3.68422712    2.93195778   -2.12082432
H            -3.18388701    2.79456134   -0.42513670
H            -5.60221536    3.00977722   -0.67787095
H            -5.68091043    1.62360163   -1.78034658
H            -5.28889100    1.34408500   -0.03204170
O             0.00000000    0.00000000    0.00000000
C             2.40555702   -0.00000000    0.00000000
C             1.12477966   -0.47552842    0.65328579
C             1.12396929   -0.12401349    2.12581135
C             1.09532837   -1.98627803    0.54090113
H             2.54491719   -0.63560110   -0.91739620
H             3.25050003   -0.12763875    0.70443845
H             2.26843548    1.05864169   -0.32410231
H             2.19866110    0.00087314    2.42609626
H             0.73905390   -0.96685027    2.73477560
H             0.63147211    0.83848451    2.33491539
H             1.99127256   -2.46036239    1.00564104
H             0.98932583   -2.22582894   -0.53327311
H             0.15669605   -2.31794977    1.03194410



