%chk=sp_12_1.chk
%mem=300GB
%nprocshared=68
#p opt=(calcfc,ts,noeigen,maxstep=5) freq b3lyp def2svp em=gd3bj  

Freeze index  [11, 18]  [18, 19]  [3, 19]  [3, 57]  [3, 28]  [3, 21] // Local index  3  18  20  57  (20,)  [11, 18]  [18, 19]

0 1
Fe            1.03390224   -5.21475514   -2.17990969
C            -1.47576372   -2.08987906    3.29753291
Pd           -0.56575207   -3.89915492    1.30316188
C             0.72249010   -6.44655226    0.78896103
H             2.54065811   -6.99462300   -3.79481969
H             3.55071933   -6.25084295   -1.39392002
H             3.05248617   -3.60082581   -1.06682958
C            -0.04959626   -1.41878129    0.03162037
O            -1.87866245   -1.61923380    4.34058439
C             0.16944908   -5.99386792   -0.52323802
O             0.63865707   -2.12102859   -0.78085792
C            -0.92910389   -4.56234953   -1.95791809
C            -0.90633804   -5.85473346   -2.55547701
C            -0.25425453   -6.75082842   -1.65321752
H            -1.32283267   -3.65719837   -2.41744289
H            -1.29579805   -6.11332877   -3.53901333
H            -0.08171676   -7.81410673   -1.81482016
H             0.33875034   -3.39039208   -0.56363213
C            -0.25940596   -4.61387473   -0.68444580
C            -1.53414746   -1.25525040    1.99405419
O            -1.01940583   -3.31838872    3.17959564
C             2.81159053   -4.19987507   -1.94265582
C             3.06166120   -5.59508492   -2.11252591
C             2.52894762   -5.98823163   -3.38001222
C             1.95456680   -4.83324819   -3.99337205
C             2.12442178   -3.72929654   -3.10408141
H             1.76122483   -2.71573282   -3.25422144
N            -0.82941540   -1.96854597    0.93682489
H            -1.03394676   -0.29550410    2.19643989
H             1.71994073   -6.01880974    0.96390574
H             0.80266706   -7.54612827    0.86127320
C             1.24464180   -4.79720695   -5.33689616
O             0.07505933   -5.58843588   -5.26770085
C             2.14192524   -5.28356908   -6.40636438
C             1.75300512   -5.41316911   -7.71668428
C             2.65059209   -5.87630891   -8.65508652
C             3.95654070   -6.22801144   -8.34460902
C             4.33472221   -6.09363229   -7.02656895
C             3.44479954   -5.63158202   -6.08241367
C             0.78965998   -3.40325328   -5.56152581
C            -0.13012707   -2.89037641   -4.65248342
C            -0.60567613   -1.59847690   -4.78931335
C            -0.17882873   -0.79560045   -5.82605282
C             0.74676661   -1.31969181   -6.73635653
C             1.21254951   -2.60889714   -6.58852823
H             0.29696317   -6.46780471   -4.86457020
H             0.73710592   -5.14599290   -7.99055668
H             2.36856628   -5.99082907   -9.71144837
H             4.64647882   -6.59242700   -9.10543857
H             5.34708271   -6.36187725   -6.76435024
H             3.78459466   -5.53804654   -5.03872761
H            -0.49580167   -3.48352010   -3.82021404
H            -1.31930038   -1.20014873   -4.08388457
H            -0.55194236    0.20513741   -5.92574689
H             1.08434819   -0.68797852   -7.55487849
H             1.92545756   -2.98472886   -7.30715571
N            -0.15348760   -5.92452426    1.84776394
C             0.31903459   -6.21482310    3.17362339
C            -1.53612141   -6.18938926    1.63765922
H             0.13171637   -7.24371014    3.50518114
H             1.41667149   -5.98260580    3.18020080
H            -0.13055335   -5.45737662    3.86628725
H            -1.74507264   -6.87439144    0.80313290
H            -2.01105866   -6.55960350    2.57532752
H            -2.03765709   -5.20749839    1.41167358
C            -2.98831913   -0.96811652    1.65737871
C            -2.99523503    0.03839228    0.52401578
C            -3.71171980   -2.23913452    1.27369005
C            -5.14254271   -2.01029566    0.91630405
H            -2.33943903   -0.37816611   -0.26572614
H            -4.02004337    0.24942813    0.16665123
H            -2.57190858    0.98843125    0.94507735
H            -3.45694848   -0.56964124    2.56800871
H            -3.68426387   -2.90419089    2.15860744
H            -3.18390946   -2.78877670    0.46128434
H            -5.60224843   -3.00069227    0.71677100
H            -5.68093762   -1.60034224    1.80120194
H            -5.28891154   -1.34351001    0.04941627
O             0.00000000    0.00000000    0.00000000
C             2.40555702    0.00000000    0.00000000
C             1.12477966    0.46702683   -0.65939028
C             1.12396929    0.09646849   -2.12723931
C             1.09532837    1.97910537   -0.56658305
H             2.54491719    0.64743037    0.90908661
H             3.25050003    0.11850380   -0.70603260
H             2.26843548   -1.05435494    0.33778719
H             2.19866110   -0.03229712   -2.42588144
H             0.73905390    0.93134694   -2.74706933
H             0.63147211   -0.86865720   -2.32385903
H             1.99127256    2.44713041   -1.03742456
H             0.98932583    2.23254945    0.50439830
H             0.15669605    2.30438905   -1.06188082



