%chk=sp_16_3.chk
%mem=300GB
%nprocshared=68
#p opt=(calcfc,ts,noeigen,maxstep=5) freq b3lyp def2svp em=gd3bj  

Freeze index  [11, 18]  [18, 19]  [3, 19]  [3, 36]  [3, 28]  [3, 21] // Local index  3  18  20  36  (20,)  [11, 18]  [18, 19]

0 1
Fe            0.12605258   -4.82449169   -3.11818313
C            -3.99598841   -0.99555307    0.67837002
Pd           -2.75706966   -2.94235285   -0.98121925
C            -2.60481065   -5.75627041   -1.66814031
H             1.47335287   -7.09410964   -4.15729743
H             0.70135700   -7.12005358   -1.56093949
H             1.19703062   -4.66016869   -0.52118766
C            -0.60067746   -1.14522699   -0.58655071
O            -4.78364953   -0.41142088    1.39261746
C            -1.85120745   -5.03167445   -2.73571813
O             0.10965300   -2.08818692   -1.06950633
C            -0.96395712   -3.18779368   -3.79743303
C            -1.03411645   -4.25038168   -4.74285830
C            -1.61395761   -5.38470815   -4.09528400
H            -0.53239318   -2.20464269   -3.97807881
H            -0.68531086   -4.21533697   -5.77387407
H            -1.80827250   -6.35538967   -4.54967757
H            -0.71386991   -2.97473142   -1.60265114
C            -1.46488033   -3.64542678   -2.52756890
C            -2.80142823   -0.23394869    0.05219670
O            -4.11284226   -2.26372469    0.34748580
C             1.42911599   -4.99322980   -1.53072902
C             1.15909437   -6.28151036   -2.08335677
C             1.56678088   -6.26852018   -3.45392826
C             2.09270739   -4.97271338   -3.74437450
C             2.00352775   -4.18294170   -2.55833294
H             2.28020406   -3.13668468   -2.45539161
N            -1.91509473   -1.18793971   -0.60160980
H            -2.26846096    0.27150154    0.87239759
H            -1.95759396   -5.96929228   -0.80547536
H             2.46467070   -4.63638875   -4.71063498
C            -3.19228998   -7.07110436   -2.15441230
H            -2.36964689   -7.77701065   -2.39902200
H            -3.78828868   -7.51117644   -1.31672189
H            -3.84584312   -6.89386389   -3.03668952
N            -3.66982956   -4.86400709   -1.18805562
C            -4.41886489   -5.40954677   -0.08952207
C            -4.46267996   -4.29864786   -2.22619916
H            -5.16083978   -6.16419536   -0.37870232
H            -3.66946528   -5.83541893    0.62867882
H            -4.88003617   -4.55165060    0.46453824
H            -4.27324614   -4.72193909   -3.22332432
H            -5.54577853   -4.36552021   -1.97266286
H            -4.22916846   -3.19847535   -2.26857124
C            -3.33602806    0.83150427   -0.89089616
C            -3.79765964    0.17794541   -2.14497385
C            -2.90299116    0.01720089   -3.18289858
C            -3.27617414   -0.58493898   -4.37594297
C            -4.55946551   -1.04572954   -4.56700198
C            -5.44649617   -0.87783530   -3.51722856
C            -5.08160782   -0.28029429   -2.32936266
H            -4.17650595    1.33453245   -0.37515850
H            -2.57378174    1.61276835   -1.07281203
H            -1.87856393    0.37474378   -3.05534780
H            -2.55611886   -0.70010933   -5.17691806
H            -4.88902824   -1.52219300   -5.48612739
H            -6.46199451   -1.23412140   -3.64800936
H            -5.79859285   -0.15429281   -1.50467673
O             0.00000000    0.00000000    0.00000000
C             1.40318413   -0.00000000    0.00000000
C             2.13235159    0.72924250   -0.91189112
C             3.52065426    0.71761449   -0.89735130
C             4.20268390   -0.03186883    0.03984552
C             3.46934055   -0.75998254    0.95032243
C             2.10259292   -0.74389324    0.93020643
H             1.58990808    1.30890047   -1.63672320
H             4.07861212    1.28800284   -1.61062198
H             5.28298349   -0.06645775    0.08312470
H             3.97382475   -1.35462634    1.69388630
H             1.54177846   -1.33506256    1.66945059



