%chk=sp_10_1.chk
%mem=300GB
%nprocshared=68
#p opt=(calcfc,ts,noeigen,maxstep=5) freq b3lyp def2svp em=gd3bj  

Freeze index  [11, 18]  [18, 19]  [3, 19]  [3, 33]  [3, 28]  [3, 21] // Local index  3  18  20  33  (20,)  [11, 18]  [18, 19]

0 1
Fe            1.03393723   -5.07193962   -2.49421173
C            -1.47577542   -2.28732314    3.16379020
Pd           -0.56574791   -3.97144123    1.06267239
C             0.72251589   -6.48268856    0.39391823
H             2.54072175   -6.74986676   -4.21476609
H             3.55076390   -6.15406954   -1.77292749
H             3.05250862   -3.52896019   -1.28466778
C            -0.04959626   -1.41806553   -0.05504885
O            -1.87867116   -1.88124397    4.23362214
C             0.16949366   -5.95074624   -0.88821953
O             0.63866604   -2.06940704   -0.90889153
C            -0.92905534   -4.43430681   -2.23281936
C            -0.90629355   -5.68779257   -2.90817221
C            -0.25420514   -6.63729738   -2.06230236
H            -1.32280537   -3.50279840   -2.63621773
H            -1.29575975   -5.88585098   -3.90566236
H            -0.08166286   -7.68872206   -2.28851123
H             0.33877180   -3.34964922   -0.76957589
C            -0.25936959   -4.56348157   -0.96485941
C            -1.53415948   -1.37466918    1.91368913
O            -1.01940456   -3.50633929    2.97106941
C             2.81162195   -4.07341293   -2.19545310
C             3.06169630   -5.45564114   -2.45015959
C             2.52900394   -5.77067705   -3.73929435
C             1.95461986   -4.58040898   -4.28098381
C             2.12445019   -3.53281856   -3.32595536
H             1.76124747   -2.51197720   -3.41394861
N            -0.82941375   -2.02207480    0.81488739
H            -1.03395795   -0.42905439    2.17430555
H             1.71996657   -6.06643656    0.59466008
H             0.80269728   -7.58462877    0.39894286
H             1.45486469   -4.49733957   -5.22345733
N            -0.15347080   -6.02627864    1.48259434
C             0.31903723   -6.39698426    2.78826780
C            -1.53610021   -6.27781894    1.25669615
H             0.13170685   -7.44419366    3.05639457
H             1.41667985   -6.16560578    2.80901995
H            -0.13054965   -5.68322539    3.52588177
H            -1.74503400   -6.91059671    0.38191749
H            -2.01104827   -6.70459868    2.17002361
H            -2.03762121   -5.28396446    1.09108199
C            -2.98832867   -1.06752909    1.59518369
C            -3.32029602    0.40014128    1.79043409
C            -2.51173977    1.30597331    0.93035673
C            -3.15880487    0.68204975    3.27347478
H            -3.29576446   -1.40209922    0.57343054
H            -3.62807427   -1.64568822    2.29789009
H            -4.38980385    0.56259597    1.54725936
H            -3.00501407    1.42885029   -0.06555323
H            -2.50614807    2.31762274    1.40497533
H            -1.48620437    1.00330675    0.76219399
H            -2.34429043    0.04117357    3.70073025
H            -2.92319386    1.74492659    3.43959920
H            -4.12621565    0.39833120    3.78077163
O             0.00000000    0.00000000    0.00000000
C             2.40555702    0.00000000    0.00000000
C             1.12477966    0.50640865   -0.62965060
C             1.12396929    0.22614702   -2.11738300
C             1.09532837    2.01000167   -0.44471083
H             2.54491719    0.59072723    0.94691388
H             3.25050003    0.16138292   -0.69748171
H             2.26843548   -1.07300895    0.27279356
H             2.19866110    0.11585233   -2.42332872
H             0.73905390    1.09730627   -2.68509143
H             0.63147211   -0.72517593   -2.37255264
H             1.99127256    2.50589660   -0.88610338
H             0.98932583    2.19759444    0.63974475
H             0.15669605    2.36491440   -0.91922774



