%chk=sp_14_1.chk
%mem=300GB
%nprocshared=68
#p opt=(calcfc,ts,noeigen,maxstep=5) freq b3lyp def2svp em=gd3bj  

Freeze index  [11, 18]  [18, 19]  [3, 19]  [3, 45]  [3, 28]  [3, 21] // Local index  3  18  20  45  (20,)  [11, 18]  [18, 19]

0 1
Fe            1.03393054    5.19650123    2.22306139
C            -1.47579653    2.11713800   -3.28008450
Pd           -0.56576056    3.90980365   -1.27076612
C             0.72248881    6.45284915   -0.73549244
H             2.54071053    6.96290635    3.85264708
H             3.55074272    6.23905814    1.44568134
H             3.05250679    3.59183914    1.09661596
C            -0.04959626    1.41899467   -0.01985804
O            -1.87870974    1.65514707   -4.32698934
C             0.16947196    5.98931893    0.57292671
O             0.63867196    2.11447853    0.79843093
C            -0.92907192    4.54595181    1.99569814
C            -0.90630371    5.83333731    2.60395829
C            -0.25422094    6.73687650    1.70914163
H            -1.32280577    3.63702047    2.44769925
H            -1.29575266    6.08375239    3.58960672
H            -0.08168986    7.79877526    1.87955576
H             0.33876395    3.38558585    0.59172810
C            -0.25939198    4.60803726    0.72268338
C            -1.53416921    1.27172963   -1.98355701
O            -1.01943016    3.34461218   -3.15196117
C             2.81160663    4.18361325    1.97738957
C             3.06167323    5.57736300    2.15881011
C             2.52898480    5.95998158    3.42951206
C             1.95461616    4.79998212    4.03328566
C             2.12446050    3.70342446    3.13486435
H             1.76126518    2.68864300    3.27661240
N            -0.82941523    1.97623277   -0.92044592
H            -1.03397406    0.31369343   -2.19389732
H             1.71993574    6.02658239   -0.91398267
H             0.80266440    7.55299384   -0.79867567
Si            1.08123441    4.74191578    5.68577365
C             0.00638254    3.24117025    5.70024907
C             2.40023361    4.70484322    6.99261915
C            -0.01439711    6.24724235    5.89843706
H            -0.34428190    3.03644526    4.65123790
H             0.52315773    2.33915649    6.05781231
H            -0.90974191    3.35355543    6.32216703
H             2.51014879    5.72663142    7.43721852
H             2.17501282    4.01942795    7.81565099
H             3.40229007    4.42938069    6.58742818
H             0.30586112    7.04079200    5.21184921
H             0.07400914    6.53574020    6.97838102
H            -1.07978678    6.01647409    5.73779855
N            -0.15350077    5.93962569   -1.79857215
C             0.31900016    6.24091812   -3.12198561
C            -1.53614281    6.20272906   -1.58626086
H             0.13166294    7.27252394   -3.44499452
H             1.41663462    6.00877075   -3.13050830
H            -0.13059027    5.48923218   -3.82090483
H            -1.74507723    6.88078620   -0.74608124
H            -2.01109443    6.58071788   -2.52081771
H            -2.03765913    5.21899920   -1.36842599
C            -2.98833959    0.98182671   -1.64926360
C            -2.99525640   -0.03404803   -0.52428805
C            -3.71172266    2.24962467   -1.25504074
C            -5.14255036    2.01784828   -0.89954923
H            -2.33944803    0.37593909    0.26887654
H            -4.02006640   -0.24802760   -0.16867518
H            -2.57194517   -0.98056686   -0.95321941
H            -3.45698169    0.59092606   -2.56316083
H            -3.68426062    2.92200347   -2.13440646
H            -3.18390143    2.79250493   -0.43810766
H            -5.60223586    3.00656132   -0.69180357
H            -5.68095593    1.61525388   -1.78781279
H            -5.28891518    1.34389057   -0.03822618
O             0.00000000    0.00000000    0.00000000
C             2.40555702    0.00000000   -0.00000000
C             1.12477966   -0.47247692    0.65549611
C             1.12396929   -0.11409932    2.12636652
C             1.09532837   -1.98373417    0.55015742
H             2.54491719   -0.63987208   -0.91442237
H             3.25050003   -0.12435251    0.70502598
H             2.26843548    1.05711886   -0.32903531
H             2.19866110    0.01218622    2.42606582
H             0.73905390   -0.95408728    2.73925436
H             0.63147211    0.84936329    2.33098008
H             1.99127256   -2.45564625    1.01710298
H             0.98932583   -2.22829144   -0.52288810
H             0.15669605   -2.31311253    1.04274167



