%chk=sp_17_3.chk
%mem=300GB
%nprocshared=68
#p opt=(calcfc,ts,noeigen,maxstep=5) freq b3lyp def2svp em=gd3bj  

Freeze index  [11, 18]  [18, 19]  [3, 19]  [3, 36]  [3, 28]  [3, 21] // Local index  3  18  20  36  (20,)  [11, 18]  [18, 19]

0 1
Fe            1.03393692   -5.16331037   -2.29910328
C            -1.47574896   -2.16506808    3.24867364
Pd           -0.56571408   -3.92805607    1.21326324
C             0.72254582   -6.46295749    0.64069308
H             2.54070045   -6.90559891   -3.95446926
H             3.55076246   -6.21714703   -1.53712899
H             3.05250466   -3.57534704   -1.14926058
C            -0.04959626   -1.41913328   -0.00097756
O            -1.87863764   -1.71850831    4.30225559
C             0.16950364   -5.98026015   -0.66077805
O             0.63866668   -2.10252721   -0.82938314
C            -0.92906712   -4.51618437   -2.06219604
C            -0.90630166   -5.79450230   -2.68927620
C            -0.25420415   -6.71106661   -1.80783221
H            -1.32280310   -3.60072387   -2.50079637
H            -1.29575510   -6.03042572   -3.67849465
H            -0.08165921   -7.77035534   -1.99381618
H             0.33877808   -3.37653952   -0.64135656
C            -0.25936516   -4.59694175   -0.79023513
C            -1.53413143   -1.30072108    1.96469387
O            -1.01938991   -3.39053935    3.10253999
C             2.81161431   -4.15411767   -2.03862185
C             3.06168965   -5.54505063   -2.24047263
C             2.52899144   -5.90898931   -3.51664835
C             1.95460285   -4.74024446   -4.10332220
C             2.12445148   -3.65700905   -3.18891562
H             1.76124228   -2.64025246   -3.31574454
N            -0.82940771   -1.98954207    0.89136308
H            -1.03395111   -0.34587090    2.18906926
H             1.71998734   -6.03934903    0.82542222
H             1.44614282   -4.69233155   -5.06472899
C             0.83284535   -7.97756210    0.70540489
H             1.58997146   -8.32607617   -0.02956262
H             1.19168120   -8.25197922    1.72840791
H            -0.15934818   -8.44101078    0.51117226
N            -0.15343596   -5.96539737    1.71119309
C             0.31907272   -6.28606753    3.03003714
C            -1.53607554   -6.22535992    1.49506331
H             0.13175767   -7.32230651    3.33788174
H             1.41671274   -6.05406824    3.04195815
H            -0.13051161   -5.54472851    3.73992305
H            -1.74501727   -6.89101036    0.64502091
H            -2.01101575   -6.61702000    2.42398164
H            -2.03759560   -5.23853837    1.29168333
C            -2.98830714   -1.00593842    1.63471308
C            -3.60641247   -2.22507375    1.04767934
C            -3.55930493   -2.40580187   -0.31931607
C            -4.11843586   -3.52282818   -0.92331746
C            -4.74335115   -4.49550445   -0.17562100
C            -4.78318471   -4.30113292    1.19465967
C            -4.22940278   -3.19328350    1.80064598
H            -3.48935317   -0.72572770    2.58121221
H            -3.06908150   -0.12473745    0.97029850
H            -3.06871876   -1.64766097   -0.93421839
H            -4.06914646   -3.64302905   -1.99869052
H            -5.19248553   -5.38339250   -0.61191637
H            -5.27089459   -5.05590996    1.80106793
H            -4.26957089   -3.05357150    2.89102108
O             0.00000000    0.00000000    0.00000000
C             2.40555702    0.00000000    0.00000000
C             1.12477966    0.48204989   -0.64848863
C             1.12396929    0.14530600   -2.12446215
C             1.09532837    1.99159768   -0.52097325
H             2.54491719    0.62637771    0.92371831
H             3.25050003    0.13469019   -0.70312427
H             2.26843548   -1.06183577    0.31347939
H             2.19866110    0.02343422   -2.42598324
H             0.73905390    0.99420175   -2.72495136
H             0.63147211   -0.81504865   -2.34319906
H             1.99127256    2.47031452   -0.98093993
H             0.98932583    2.22037430    0.55554717
H             0.15669605    2.32817258   -1.00866852



