%chk=sp_29_1.chk
%mem=300GB
%nprocshared=68
#p opt=(calcfc,ts,noeigen,maxstep=5) freq b3lyp def2svp em=gd3bj  

Freeze index  [11, 18]  [18, 19]  [3, 19]  [3, 33]  [3, 28]  [3, 21] // Local index  3  18  20  33  (20,)  [11, 18]  [18, 19]

0 1
Fe            1.03394494    5.13985133    2.35105166
C            -1.47577581    2.19772416   -3.22666746
Pd           -0.56572571    3.94008666   -1.17358935
C             0.72253579    6.46908824   -0.57548872
H             2.54072164    6.86536159    4.02387787
H             3.55077496    6.20132820    1.59971981
H             3.05251766    3.56356815    1.18523887
C            -0.04959626    1.41905136    0.01527942
O            -1.87866969    1.76180057   -4.28469255
C             0.16950833    5.97329682    0.72104519
O             0.63866966    2.09407081    0.85053404
C            -0.92906213    4.49515410    2.10763638
C            -0.90627884    5.76708815    2.74757409
C            -0.25419128    6.69250154    1.87543090
H            -1.32279652    3.57531715    2.53697769
H            -1.29575185    5.99302438    3.73911876
H            -0.08165229    7.74985369    2.07206665
H             0.33877536    3.36989455    0.67536195
C            -0.25936491    4.58873668    0.83655447
C            -1.53415193    1.32046714   -1.95147285
O            -1.01938958    3.42165241   -3.06819584
C             2.81161961    4.13335050    2.08039135
C             3.06170334    5.52217980    2.29626333
C             2.52900374    5.87323023    3.57604882
C             1.95461645    4.69861566    4.15089990
C             2.12446657    3.62466168    3.22561467
H             1.76124340    2.60667696    3.34218855
N            -0.82940641    1.99842774   -0.87125258
H            -1.03395777    0.36792838   -2.18546388
H             1.71997427    6.04736301   -0.76448401
H             0.80271735    7.57045169   -0.61141489
H             1.45487110    4.64199922    5.09532778
N            -0.15345472    5.98233776   -1.65095000
C            -1.89077627    8.10502060   -2.45872599
C            -0.47280859    8.04106945   -2.96231075
C             0.03735443    6.64066899   -2.91207533
C            -1.56113787    6.02448980   -1.27657477
C            -1.87867493    7.50762164   -1.05013175
H            -2.50907193    7.48126259   -3.13623499
H            -2.30964618    9.10344719   -2.41028924
H             0.16461223    8.76960010   -2.43391417
H            -0.51746670    8.33462099   -4.05093502
H             1.10691281    6.59010343   -3.18433987
H            -0.55838041    6.04842148   -3.66660697
H            -1.79942583    5.40856131   -0.41232892
H            -2.12710571    5.69475595   -2.18445928
H            -2.82963870    7.65677973   -0.53893807
H            -1.03031561    8.00665144   -0.51195255
C            -2.98832106    1.02237745   -1.62447894
C            -2.99680059   -0.29992986   -0.91139619
C            -3.63770908    2.13179180   -0.88616679
H            -2.02719023   -0.50257387   -0.37212219
H            -3.04460547   -1.11960871   -1.68508570
H            -3.81309265   -0.42609441   -0.20072215
H            -3.51674139    0.88578464   -2.60107415
H            -3.86020797    1.92729755    0.17504058
H            -3.01781243    3.05982879   -0.97876404
H            -4.62543561    2.40019670   -1.35157967
O             0.00000000    0.00000000    0.00000000
C             2.40555702   -0.00000000    0.00000000
C             1.12477966   -0.48856083    0.64359764
C             1.12396929   -0.16670878    2.12288988
C             1.09532837   -1.99674686    0.50087564
H             2.54491719   -0.61703674   -0.92998398
H             3.25050003   -0.14176938    0.70173117
H             2.26843548    1.06494107   -0.30276238
H             2.19866110   -0.04788189    2.42562387
H             0.73905390   -1.02161310    2.71479349
H             0.63147211    0.79139270    2.35129406
H             1.99127256   -2.48007490    0.95599449
H             0.98932583   -2.21466278   -0.57789570
H             0.15669605   -2.33821963    0.98515417



