%chk=sp_24_1.chk
%mem=300GB
%nprocshared=68
#p opt=(calcfc,ts,noeigen,maxstep=5) freq b3lyp def2svp em=gd3bj  

Freeze index  [11, 18]  [18, 19]  [3, 19]  [3, 33]  [3, 28]  [3, 21] // Local index  3  18  20  33  (20,)  [11, 18]  [18, 19]

0 1
Fe            0.12608918   -5.08577117   -2.67089067
C            -3.99599360   -0.93041974    0.76526952
Pd           -2.75705613   -3.01879506   -0.71217954
C            -2.60478496   -5.88315062   -1.14281225
H             1.47341797   -7.43975681   -3.50130480
H             0.70139706   -7.23172096   -0.91317021
H             1.19706338   -4.68816486   -0.09924117
C            -0.60067746   -1.19341052   -0.48099679
O            -4.78366044   -0.28432412    1.42400154
C            -1.85117705   -5.25767595   -2.27132039
O             0.10965950   -2.17604934   -0.87704333
C            -0.96392129   -3.51692757   -3.49481348
C            -1.03407364   -4.66036029   -4.34067784
C            -1.61391214   -5.73175434   -3.59356312
H            -0.53237203   -2.55404005   -3.76330746
H            -0.68527684   -4.71834172   -5.37067161
H            -1.80822673   -6.73941268   -3.95865178
H            -0.71385354   -3.10700793   -1.32815709
C            -1.46485322   -3.85830944   -2.18889582
C            -2.80143368   -0.22831221    0.07305148
O            -4.11282818   -2.22325868    0.55000167
C             1.42915889   -5.11081852   -1.07468117
C             1.15913803   -6.44364418   -1.50900996
C             1.56683665   -6.55416953   -2.87518016
C             2.09275066   -5.28978686   -3.28117281
C             2.00355094   -4.39637815   -2.17110543
H             2.28021942   -3.34510839   -2.16283468
N            -1.91507934   -1.23731899   -0.49215352
H            -2.26846736    0.34896938    0.84438819
H            -1.95755943   -6.01759759   -0.26446484
H            -3.03178329   -6.86685016   -1.40875236
H             2.45834107   -5.04612315   -4.25681404
N            -3.66980246   -4.95127243   -0.74505898
C            -4.41883759   -5.39563671    0.39816154
C            -4.46264981   -4.48174123   -1.82991477
H            -5.16080722   -6.17326164    0.17812990
H            -3.66943521   -5.75506971    1.15179264
H            -4.88000545   -4.49130765    0.87267366
H            -4.27321981   -4.99314479   -2.78485162
H            -5.54574935   -4.52550316   -1.57138876
H            -4.22914974   -3.38985824   -1.97122830
C            -3.33605234    0.74783736   -0.96219347
C            -3.79766409   -0.01605128   -2.15229536
C            -2.90298897   -0.26962932   -3.17151416
C            -3.27615111   -0.97680119   -4.30546803
C            -4.55942675   -1.45295821   -4.45424385
C            -5.44647027   -1.19120737   -3.42385638
C            -5.08160716   -0.48906320   -2.29465618
H            -4.17654337    1.29526074   -0.49387010
H            -2.57382685    1.50955714   -1.21375087
H            -1.87856940    0.09797641   -3.07669209
H            -2.55609863   -1.16364922   -5.09280311
H            -4.88897878   -2.01030316   -5.32670157
H            -6.46196391   -1.55784087   -3.52201466
H            -5.79859860   -0.28929379   -1.48467783
O             0.00000000    0.00000000    0.00000000
C             1.40318413    0.00000000   -0.00000000
C             2.13235159    0.64412871   -0.97387795
C             3.52065426    0.63385781   -0.95834972
C             4.20268390   -0.02814972    0.04255444
C             3.46934055   -0.67128163    1.01492224
C             2.10259292   -0.65706992    0.99343861
H             1.58990808    1.15613251   -1.74798195
H             4.07861212    1.13767120   -1.72010427
H             5.28298349   -0.05869915    0.08877363
H             3.97382475   -1.19652286    1.80903189
H             1.54177846   -1.17923994    1.78293311



