%chk=sp_21_1.chk
%mem=300GB
%nprocshared=68
#p opt=(calcfc,ts,noeigen,maxstep=5) freq b3lyp def2svp em=gd3bj  

Freeze index  [11, 18]  [18, 19]  [3, 19]  [3, 35]  [3, 28]  [3, 21] // Local index  3  18  20  35  (20,)  [11, 18]  [18, 19]

0 1
Fe            1.03391743    5.20234250    2.20940136
C            -1.47577208    2.10851197   -3.28563657
Pd           -0.56574320    3.90646667   -1.28104724
C             0.72250823    6.45089988   -0.75245497
H             2.54067456    6.97302523    3.83435210
H             3.55075193    6.24285117    1.42928250
H             3.05250085    3.59473455    1.08719438
C            -0.04959626    1.41893774   -0.02357777
O            -1.87866471    1.64376715   -4.33134156
C             0.16946777    5.99081857    0.55717686
O             0.63866275    2.11657918    0.79287488
C            -0.92908130    4.55119170    1.98372561
C            -0.90631830    5.84018561    2.58859030
C            -0.25423059    6.74135810    1.69142831
H            -1.32281980    3.64346395    2.43811281
H            -1.29577703    6.09319306    3.57357113
H            -0.08168968    7.80370364    1.85902837
H             0.33877198    3.38714993    0.58283301
C            -0.25937844    4.60993504    0.71054921
C            -1.53414696    1.26651653   -1.98690180
O            -1.01940047    3.33632310   -3.16074853
C             2.81160686    4.18880551    1.96641350
C             3.06167207    5.58302899    2.14416080
C             2.52897370    5.96900344    3.41384830
C             1.95461094    4.81057625    4.02065367
C             2.12443864    3.71167732    3.12513974
H             1.76124148    2.69727212    3.26954103
N            -0.82941183    1.97381281   -0.92564480
H            -1.03394361    0.30792645   -2.19471958
H             1.71994862    6.02416767   -0.92982951
H             0.80268264    7.55087416   -0.81854126
C             1.24467226    4.76692365    5.36397239
O             0.76006999    3.72398410    5.75658121
H             1.15686377    5.63212902    5.98070898
N            -0.15347420    5.93488912   -1.81418961
C             0.31903623    6.23270093   -3.13838295
C            -1.53611141    6.19853930   -1.60258413
H             0.13170405    7.26345990   -3.46410746
H             1.41667896    6.00053754   -3.14628388
H            -0.13054708    5.47917998   -3.83533893
H            -1.74505405    6.87880384   -0.76418346
H            -2.01105745    6.57406996   -2.53814354
H            -2.03763228    5.21538312   -1.38216563
C            -2.98831595    0.97748854   -1.65184342
C            -2.99522626   -0.03542877   -0.52420425
C            -3.71170052    2.24631827   -1.26094581
C            -5.14252227    2.01546865   -0.90484538
H            -2.33941525    0.37664193    0.26787938
H            -4.02003389   -0.24847590   -0.16802668
H            -2.57191234   -0.98307539   -0.95065548
H            -3.45696056    0.58418547   -2.56471203
H            -3.68424743    2.91637867   -2.14208055
H            -3.18387439    2.79133984   -0.44544578
H            -5.60221625    3.00472359   -0.69969415
H            -5.68093632    1.61054852   -1.79204095
H            -5.28888425    1.34378053   -0.04174976
O             0.00000000    0.00000000    0.00000000
C             2.40555702    0.00000000    0.00000000
C             1.12477966   -0.47075696    0.65673243
C             1.12396929   -0.10852479    2.12665832
C             1.09532837   -1.98228515    0.55535576
H             2.54491719   -0.64226698   -0.91274184
H             3.25050003   -0.12250391    0.70534954
H             2.26843548    1.05625269   -0.33180535
H             2.19866110    0.01854595    2.42602553
H             0.73905390   -0.94690323    2.74174603
H             0.63147211    0.85547088    2.32874552
H             1.99127256   -2.45297155    1.02353680
H             0.98932583   -2.22965450   -0.51704498
H             0.15669605   -2.31037110    1.04880176



