%chk=sp_28_1.chk
%mem=300GB
%nprocshared=68
#p opt=(calcfc,ts,noeigen,maxstep=5) freq b3lyp def2svp em=gd3bj  

Freeze index  [11, 18]  [18, 19]  [3, 19]  [3, 33]  [3, 28]  [3, 21] // Local index  3  18  20  33  (20,)  [11, 18]  [18, 19]

0 1
Fe            0.41194154    5.73034321   -0.09044534
C            -3.87887887    0.68180008    1.38158134
Pd           -2.53621240    3.14764532    0.93894013
C            -2.80921777    5.89971485    0.06438436
H             1.44071958    8.14530992   -1.16544041
H            -0.52271136    6.85720399   -2.51577936
H             0.00597159    4.19490540   -2.41339088
C            -0.49636088    1.30953048    0.23485272
O            -4.73228821   -0.15112069    1.60458412
C            -1.45537777    5.79969988    0.68872162
O             0.08035558    2.33254271   -0.26298484
C             0.30234653    4.73466388    1.73297543
C             0.44500698    6.13530814    1.94671627
C            -0.66128059    6.79495926    1.32765091
H             1.00886165    3.96892119    2.04910464
H             1.26581144    6.62376273    2.46978604
H            -0.84635391    7.86829707    1.31677134
H            -0.55670211    3.40371471    0.17876512
C            -0.87711867    4.49027029    0.94428458
C            -2.37987731    0.30117391    1.46663187
O            -4.14273032    1.94163278    1.10843644
C             0.62249328    4.99192596   -2.00275186
C             0.34122871    6.39088734   -2.04483849
C             1.37762863    7.07145748   -1.33241610
C             2.30048171    6.09128777   -0.85525117
C             1.83216321    4.80622080   -1.26470106
H             2.28405440    3.84671157   -1.02609806
N            -1.57495313    1.41408601    0.98010913
H            -2.22826972   -0.58000715    0.82412439
H            -2.77684762    5.60483924   -0.99413332
H            -3.23211393    6.91866368    0.12442694
H             3.17208982    6.28447010   -0.26543616
N            -3.68801201    4.93773986    0.74499552
C            -5.00630169    4.86859404    0.17686432
C            -3.65623502    5.02935889    2.16504801
H            -5.66613435    5.69693463    0.46342118
H            -4.87322178    4.82568081   -0.93633802
H            -5.43814382    3.86994336    0.44493718
H            -3.10492907    5.89895973    2.55127632
H            -4.68917494    5.00471128    2.58250040
H            -3.15114066    4.10108937    2.55224376
C            -2.05247614   -0.09537638    2.89699724
C            -0.91525824   -1.07348223    2.81273622
C            -1.79880980    1.08089838    3.76282126
H            -0.28412561   -0.91896966    1.89087311
H            -1.34584489   -2.10609780    2.66757345
H            -0.25492010   -1.07614450    3.67948161
H            -2.94432853   -0.64356265    3.29158623
H            -0.74943445    1.22218680    4.07321136
H            -2.18133349    2.00676997    3.26226756
H            -2.38567975    1.00976853    4.71925050
O             0.00000000    0.00000000    0.00000000
C             1.41083033    0.00000000    0.00000000
C             1.94061031    0.46920583    1.30085413
C             2.20995799    1.80923625    1.56507968
C             2.70552417    2.22844570    2.78901500
C             2.94592662    1.31139573    3.78671974
C             2.68645864   -0.02342325    3.54804400
C             2.19263547   -0.43028926    2.32449116
H             1.79393422    0.64404860   -0.81668159
H             1.72408576   -1.05350745   -0.16490351
H             2.01310165    2.51378445    0.76481296
H             2.90331403    3.28700589    2.95622747
H             3.33765042    1.67008348    4.74434047
H             2.87529943   -0.75401557    4.33548428
H             1.98003595   -1.48874856    2.11621007



