%chk=sp_27_1.chk
%mem=300GB
%nprocshared=68
#p opt=(calcfc,ts,noeigen,maxstep=5) freq b3lyp def2svp em=gd3bj  

Freeze index  [11, 18]  [18, 19]  [3, 19]  [3, 33]  [3, 28]  [3, 21] // Local index  3  18  20  33  (20,)  [11, 18]  [18, 19]

0 1
Fe            1.03395603    5.29429707    1.97890451
C            -1.47578631    1.96227810   -3.37503171
Pd           -0.56574375    3.84646681   -1.45130288
C             0.72253069    6.41166205   -1.03490306
H             2.54074889    7.13457342    3.52455035
H             3.55077618    6.29954442    1.15384061
H             3.05252289    3.63895943    0.92833229
C            -0.04959626    1.41653347   -0.08586697
O            -1.87869151    1.45208994   -4.39932181
C             0.16950642    6.00949299    0.29367023
O             0.63867362    2.14933116    0.69917458
C            -0.92903912    4.63388239    1.78204368
C            -0.90627121    5.94816921    2.32974181
C            -0.25418911    6.80910427    1.39388206
H            -1.32278433    3.74697455    2.27582741
H            -1.29572570    6.24417588    3.30268327
H            -0.08164342    7.87777505    1.51469305
H             0.33878039    3.40945605    0.43357278
C            -0.25935919    4.63666886    0.50751606
C            -1.53416452    1.17809407   -2.04057941
O            -1.01940477    3.19438901   -3.30416048
C             2.81164116    4.27105314    1.78062255
C             3.06171581    5.67172846    1.89700685
C             2.52902531    6.11305832    3.14853190
C             1.95464403    4.98238756    3.80560617
C             2.12447220    3.84524739    2.95917887
H             1.76125964    2.83815982    3.14798109
N            -0.82940946    1.93128742   -1.01140464
H            -1.03397194    0.21130566   -2.20613399
H             1.71996919    5.97753905   -1.19337321
H             0.80271482    7.50766037   -1.14918857
H             1.45490083    4.99319994    4.75167260
N            -0.15346833    5.84953382   -2.07295139
C             0.31904028    6.08891310   -3.40894355
C            -1.53609288    6.12223800   -1.87311473
H             0.13171358    7.10437263   -3.77960882
H             1.41667619    5.85661710   -3.40665223
H            -0.13055567    5.30552156   -4.07212907
H            -1.74502438    6.83865125   -1.06539209
H            -2.01104823    6.45632658   -2.82424097
H            -2.03761994    5.14970138   -1.60973614
C            -2.98833522    0.90406589   -1.69318206
C            -2.99682402   -0.36408396   -0.88771361
C            -3.63771878    2.06326282   -1.03577533
H            -2.02720981   -0.52780462   -0.33537498
H            -3.04464306   -1.23679965   -1.60105272
H            -3.81311215   -0.43929539   -0.16985705
H            -3.51676079    0.69825952   -2.65755725
H            -3.86021381    1.93489038    0.03730879
H            -3.01780366    2.98234362   -1.19424401
H            -4.62543190    2.29783659   -1.51912884
O             0.00000000    0.00000000    0.00000000
C             2.40555702   -0.00000000    0.00000000
C             1.12477966   -0.44146274    0.67677193
C             1.12396929   -0.01502895    2.12937253
C             1.09532837   -1.95598465    0.64187108
H             2.54491719   -0.68172999   -0.88365648
H             3.25050003   -0.09141065    0.71004879
H             2.26843548    1.04066265   -0.37787007
H             2.19866110    0.12506577    2.42287069
H             0.73905390   -0.82558732    2.78068384
H             0.63147211    0.95691131    2.28893138
H             1.99127256   -2.40565703    1.13027042
H             0.98932583   -2.25020931   -0.41863201
H             0.15669605   -2.26208466    1.14924878



