%chk=sp_26_1.chk
%mem=300GB
%nprocshared=68
#p opt=(calcfc,ts,noeigen,maxstep=5) freq b3lyp def2svp em=gd3bj  

Freeze index  [11, 18]  [18, 19]  [3, 19]  [3, 33]  [3, 28]  [3, 21] // Local index  3  18  20  33  (20,)  [11, 18]  [18, 19]

0 1
Fe            1.03391352    5.15067632    2.32729375
C            -1.47574599    2.18279658   -3.23679325
Pd           -0.56572664    3.93462530   -1.19176456
C             0.72251538    6.46636791   -0.60535086
H             2.54067657    6.88387735    3.99215729
H             3.55074252    6.20867560    1.57109608
H             3.05249188    3.56901823    1.16879332
C            -0.04959626    1.41910674    0.00873278
O            -1.87863756    1.74199131   -4.29279994
C             0.16948969    5.97656512    0.69345504
O             0.63865771    2.09796751    0.84085034
C            -0.92909256    4.50483591    2.08684879
C            -0.90631835    5.77971074    2.72090934
C            -0.25422734    6.70108827    1.84450378
H            -1.32282561    3.58699075    2.52043151
H            -1.29579460    6.01021803    3.71139406
H            -0.08168718    7.75934100    2.03626467
H             0.33876641    3.37298774    0.65980420
C            -0.25937873    4.59254239    0.81535541
C            -1.53413721    1.31143803   -1.95755765
O            -1.01937667    3.40744333   -3.08397262
C             2.81159994    4.14292385    2.06130142
C             3.06165931    5.53273329    2.27075757
C             2.52895577    5.88968309    3.54890087
C             1.95459039    4.71774419    4.12916451
C             2.12442526    3.63952807    3.20886246
H             1.76121790    2.62209624    3.33012030
N            -0.82939572    1.99438048   -0.88047250
H            -1.03393902    0.35783659   -2.18715661
H             1.71997305    6.04377725   -0.79239210
H             0.80269108    7.56755482   -0.64635853
H             1.45482606    4.66549516    5.07385676
N            -0.15345767    5.97465466   -1.67856120
C            -1.89135125    6.97109227   -2.91634069
C            -0.54446222    7.46855074   -3.46083192
C             0.33643960    6.31215771   -2.97013766
C            -1.46406388    6.57172221   -1.51989669
H            -2.66359188    7.72702324   -2.94987406
H            -2.12086431    6.03029507   -3.45614746
H            -0.59059992    7.47742294   -4.54739602
H            -0.23979792    8.41463340   -2.99341957
H             1.39759000    6.53494887   -3.04178722
H             0.08418298    5.45975262   -3.66702263
H            -1.45145376    7.41198518   -0.81171656
H            -2.19339382    5.82496166   -1.14670429
C            -2.98830625    1.01485540   -1.62920230
C            -2.99678628   -0.30414632   -0.91002355
C            -3.63770786    2.12766378   -0.89602342
H            -2.02717912   -0.50429567   -0.36981328
H            -3.04458490   -1.12739039   -1.67992620
H            -3.81308591   -0.42703281   -0.19878209
H            -3.51671810    0.87375490   -2.60515929
H            -3.86020763    1.92807017    0.16611654
H            -3.01780195    3.05526789   -0.99289475
H            -4.62542428    2.39391668   -1.36267238
O             0.00000000    0.00000000    0.00000000
C             2.40555702   -0.00000000    0.00000000
C             1.12477966   -0.48558653    0.64584465
C             1.12396929   -0.15691353    2.12363636
C             1.09532837   -1.99441494    0.51008185
H             2.54491719   -0.62132045   -0.92712753
H             3.25050003   -0.13853059    0.70237772
H             2.26843548    1.06353301   -0.30767202
H             2.19866110   -0.03669131    2.42581895
H             0.73905390   -1.00907814    2.71947758
H             0.63147211    0.80223144    2.34761812
H             1.99127256   -2.47563824    0.96742558
H             0.98932583   -2.21730521   -0.56767271
H             0.15669605   -2.33364996    0.99593053



