%chk=sp_2_2.chk
%mem=300GB
%nprocshared=68
#p opt=(calcfc,ts,noeigen,maxstep=5) freq b3lyp def2svp em=gd3bj  

Freeze index  [11, 18]  [18, 19]  [3, 19]  [3, 32]  [3, 28]  [3, 21] // Local index  3  18  20  32  (20,)  [11, 18]  [18, 19]

-1 1
Fe           -4.00910993    3.05297708   -2.94215308
C             2.20355019    3.59811671   -0.26420680
Pd           -0.30581263    3.93805667   -1.55523158
C            -2.47722400    5.77531209   -2.12326147
H            -6.70610823    3.63933907   -3.59675512
H            -5.71765657    4.54084051   -1.24134617
H            -4.18173937    2.57050859   -0.17522232
C            -0.50737150    1.23445832   -0.72738355
O             3.28690297    3.80744477    0.24007454
C            -2.69692076    4.59319487   -3.01038649
O            -1.74267041    1.36914114   -1.01532623
C            -2.23699711    2.51177441   -3.88819072
C            -3.09029273    3.19659935   -4.79963885
C            -3.35038770    4.49928739   -4.27274065
H            -1.89361703    1.48358967   -3.99017395
H            -3.49536304    2.79215262   -5.72605990
H            -3.96524839    5.26980344   -4.73609618
H            -1.87232358    2.49337965   -1.69920516
C            -1.97406386    3.35799022   -2.75343246
C             1.77919077    2.15232081   -0.62289920
O             1.35119811    4.54861016   -0.58274764
C            -4.75509720    2.51428076   -1.09830723
C            -5.55362795    3.55209958   -1.66687722
C            -6.07601141    3.07660643   -2.91021479
C            -5.60273668    1.74317412   -3.10526456
C            -4.78284973    1.39689502   -1.98890778
H            -4.23652152    0.46721071   -1.85108575
N             0.38224902    2.15220677   -1.03730858
H             1.90105953    1.54013797    0.28412557
H            -3.31365016    6.33914230   -1.76640332
H            -5.80457575    1.11410559   -3.97051431
O            -1.15840887    6.15030023   -1.75376473
C             2.72037359    1.61209369   -1.68719408
C             2.68014647    2.54252589   -2.86129358
C             2.25513082    0.21477596   -2.02181918
C             4.14109213    1.52508820   -1.20140583
H             1.88024849    3.32548840   -2.75611330
H             2.45839878    2.01911823   -3.82521426
H             3.63399743    3.13771093   -2.93780751
H             2.85627220   -0.52692933   -1.44095168
H             2.38064965   -0.01423277   -3.08135444
H             1.19185724    0.04868746   -1.75728316
H             4.12376074    1.56165333   -0.10218152
H             4.63525841    0.56357901   -1.49764444
H             4.77740497    2.35779035   -1.55556115
C             0.00000000    0.00000000    0.00000000
H             1.11123978   -0.00000000    0.00000000
H            -0.34606400    0.06097030    1.06166475
H            -0.40221157   -0.91856407   -0.48107931



