%chk=sp_23_2.chk
%mem=300GB
%nprocshared=68
#p opt=(calcfc,ts,noeigen,maxstep=5) freq b3lyp def2svp em=gd3bj  

Freeze index  [11, 18]  [18, 19]  [3, 19]  [3, 32]  [3, 28]  [3, 21] // Local index  3  18  20  32  (20,)  [11, 18]  [18, 19]

-1 1
Fe           -1.73252476    5.39283695    0.96457352
C            -0.58972344    0.93538688   -4.02450223
Pd           -1.23012995    3.16636405   -2.38381969
C            -1.18444200    6.05693961   -2.14780844
H            -1.70004220    7.79674512    2.47001193
H             0.38916041    7.26524012    0.82974906
H             0.97227727    4.62196337    1.05536811
C            -0.49636088    1.26427579   -0.41428565
O            -0.34928216    0.22987366   -4.98168590
C            -2.04423343    5.56713002   -1.02821672
O            -0.47577801    2.27007392    0.36990557
C            -3.09588677    3.98151419    0.27342306
C            -3.74731512    5.22985716    0.48585705
C            -3.11755353    6.20753589   -0.34467765
H            -3.32126393    3.05128313    0.79239663
H            -4.56731060    5.41558224    1.17796262
H            -3.38726030    7.26038554   -0.41694103
H            -1.05960151    3.27688953   -0.25766905
C            -2.02069771    4.15869615   -0.66758113
C            -0.89952713    0.29815001   -2.64717691
O            -0.65455148    2.24828551   -4.08382404
C             0.21071596    5.16497055    1.61137683
C            -0.10573704    6.55140915    1.48635002
C            -1.20838395    6.83266082    2.35232680
C            -1.56825868    5.61953024    3.01480850
C            -0.69535830    4.58796842    2.55404973
H            -0.73209960    3.53750952    2.83144661
N            -0.96901768    1.34766706   -1.63878247
H            -0.07508281   -0.39292790   -2.41262065
H            -0.61453893    6.95498101   -2.03121715
H            -2.38705903    5.49657291    3.72160889
O            -1.12363184    5.33050841   -3.36642559
C            -2.17974746   -0.51393132   -2.75659142
C            -2.35517761   -1.30802015   -1.51095867
C            -1.81406643   -2.57546141   -1.44500558
C            -1.94546874   -3.36243117   -0.30983841
C            -2.62418623   -2.90367012    0.79674291
C            -3.16187749   -1.63028425    0.71655024
C            -3.03464697   -0.84353911   -0.40864716
H            -3.01288024    0.20293643   -2.88860660
H            -2.16811657   -1.14423221   -3.66602229
H            -1.27079168   -2.96188865   -2.31050358
H            -1.51199716   -4.35469648   -0.28137692
H            -2.74799961   -3.48983193    1.70311198
H            -3.70011829   -1.25072348    1.57766329
H            -3.46795080    0.16641825   -0.45649866
O             0.00000000    0.00000000    0.00000000
C             1.41083033    0.00000000    0.00000000
C             1.94061031    1.03001638    0.92273607
C             2.20995799    2.33507411    0.51984527
C             2.70552417    3.28459532    1.39857373
C             2.94592662    2.95039794    2.71185493
C             2.68645864    1.66204535    3.13476795
C             2.19263547    0.72357256    2.25052233
H             1.79393422    0.17970053   -1.02443894
H             1.72408576   -1.00570234    0.35444874
H             2.01310165    2.57582262   -0.51883425
H             2.90331403    4.29584107    1.04376150
H             3.33765042    3.72033628    3.38482545
H             2.87529943    1.39228492    4.17450670
H             1.98003595   -0.30706124    2.56913035



