%chk=sp_38_1.chk
%mem=300GB
%nprocshared=68
#p opt=(calcfc,ts,noeigen,maxstep=5) freq b3lyp def2svp em=gd3bj  

Freeze index  [11, 18]  [18, 19]  [3, 19]  [3, 33]  [3, 28]  [3, 21] // Local index  3  18  20  33  (20,)  [11, 18]  [18, 19]

0 1
Fe            1.03394025    5.14374527    2.34253830
C            -1.47579122    2.19238267   -3.23030508
Pd           -0.56573323    3.93813864   -1.18009535
C             0.72251956    6.46813119   -0.58618781
H             2.54072220    6.87199988    4.01251655
H             3.55076222    6.20397880    1.58945270
H             3.05250893    3.56552748    1.17932920
C            -0.04959626    1.41907466    0.01293535
O            -1.87868969    1.75470946   -4.28760468
C             0.16949872    5.97448181    0.71116261
O             0.63865765    2.09545790    0.84705909
C            -0.92906404    4.49862842    2.10019074
C            -0.90628744    5.77161241    2.73803613
C            -0.25421206    6.69558745    1.86435177
H            -1.32279921    3.57950159    2.53105936
H            -1.29574438    5.99919229    3.72920160
H            -0.08166291    7.75327119    2.05925186
H             0.33876342    3.37100595    0.66978770
C            -0.25937289    4.59009890    0.82896433
C            -1.53415620    1.31723596   -1.95366312
O            -1.01941228    3.41656747   -3.07385121
C             2.81162330    4.13678516    2.07353738
C             3.06168601    5.52597054    2.28711716
C             2.52899585    5.87912981    3.56631327
C             1.95463322    4.70547346    4.14310556
C             2.12446318    3.62999394    3.21960767
H             1.76125048    2.61220956    3.33785515
N            -0.82941026    1.99697795   -0.87456104
H            -1.03396992    0.36431970   -2.18608195
H             1.71996371    6.04608893   -0.77449250
H             0.80269928    7.56943604   -0.62393732
H             1.45487518    4.65042396    5.08763995
N            -0.15347099    5.97960756   -1.66084766
C            -1.89136711    6.97971218   -2.89564656
C            -0.54449376    7.47877754   -3.43867398
C             0.33641842    6.32092472   -2.95141985
C            -1.46406714    6.57619904   -1.50039616
H            -2.66360957    7.73573459   -2.92693630
H            -2.12089554    6.04051250   -3.43823659
H            -0.59063411    7.49086868   -4.52520855
H            -0.23981949    8.42347235   -2.96846108
H             1.39756663    6.54392870   -3.02241354
H             0.08414787    5.47059375   -3.65082810
H            -1.45145981    7.41436096   -0.78972275
H            -2.19339898    5.82833052   -1.12941692
C            -2.98832861    1.01968366   -1.62616193
C            -2.99524696   -0.02191613   -0.52496197
C            -3.71171403    2.27803092   -1.20275085
C            -5.14254515    2.03809145   -0.85272186
H            -2.33943838    0.36963286    0.27746592
H            -4.02005187   -0.24405604   -0.17439004
H            -2.57192571   -0.95826905   -0.97564942
H            -3.45696855    0.65000345   -2.54885128
H            -3.68425999    2.97054622   -2.06634860
H            -3.18389894    2.80188829   -0.37349013
H            -5.60223128    3.02174380   -0.62218104
H            -5.68094110    1.65613361   -1.75004960
H            -5.28891603    1.34441537   -0.00719798
O             0.00000000    0.00000000    0.00000000
C             2.40555702   -0.00000000    0.00000000
C             1.12477966   -0.48749704    0.64440378
C             1.12396929   -0.16320187    2.12316236
C             1.09532837   -1.99591677    0.50417326
H             2.54491719   -0.61857209   -0.92896347
H             3.25050003   -0.14061004    0.70196439
H             2.26843548    1.06443950   -0.30452108
H             2.19866110   -0.04387508    2.42569966
H             0.73905390   -1.01712730    2.71647733
H             0.63147211    0.79527558    2.34998359
H             1.99127256   -2.47849237    0.96008987
H             0.98932583   -2.21561435   -0.57423665
H             0.15669605   -2.33658912    0.98901519



