%chk=sp_37_1.chk
%mem=300GB
%nprocshared=68
#p opt=(calcfc,ts,noeigen,maxstep=5) freq b3lyp def2svp em=gd3bj  

Freeze index  [11, 18]  [18, 19]  [3, 19]  [3, 33]  [3, 28]  [3, 21] // Local index  3  18  20  33  (20,)  [11, 18]  [18, 19]

0 1
Fe            1.03394007    5.31993703    1.90890686
C            -1.47575340    1.91759348   -3.40063702
Pd           -0.56571949    3.82699072   -1.50191217
C             0.72254573    6.39744967   -1.11937837
H             2.54072241    7.18044380    3.43016541
H             3.55078050    6.31421670    1.07068463
H             3.05251948    3.65087651    0.88028590
C            -0.04959626    1.41527854   -0.10453168
O            -1.87864115    1.39393966   -4.41810680
C             0.16951511    6.01284420    0.21437329
O             0.63866979    2.15836990    0.67077747
C            -0.92905277    4.65698463    1.72075231
C            -0.90628558    5.97839316    2.25107682
C            -0.25419360    6.82690772    1.30393451
H            -1.32281344    3.77667023    2.22619494
H            -1.29575298    6.28721078    3.22001625
H            -0.08163933    7.89707509    1.41064730
H             0.33877842    3.41487494    0.38856455
C            -0.25936178    4.64296641    0.44631191
C            -1.53413758    1.15107416   -2.05595501
O            -1.01936844    3.15052802   -3.34601666
C             2.81162007    4.29416866    1.72417059
C             3.06169680    5.69625945    1.82205739
C             2.52900339    6.15405586    3.06765365
C             1.95460878    5.03215439    3.73957772
C             2.12444924    3.88394183    2.90823140
H             1.76123099    2.87943905    3.11028533
N            -0.82940095    1.91778817   -1.03679473
H            -1.03395162    0.18218348   -2.20873789
H             1.71999257    5.96127264   -1.27209626
H             0.80274015    7.49184438   -1.24811234
H             1.45485010    5.05545375    4.68541398
N            -0.15343181    5.82168118   -2.14992569
C             0.31908149    6.04341467   -3.48896125
C            -1.53606545    6.09699844   -1.95371250
H             0.13175929    7.05389460   -3.87299235
H             1.41672457    5.81117274   -3.48359620
H            -0.13049813    5.25133789   -4.14176311
H            -1.74500961    6.82400195   -1.15552090
H            -2.01100122    6.41851585   -2.90918410
H            -2.03759349    5.12802351   -1.67754326
C            -2.98831933    0.88165802   -1.70498648
C            -3.07394795   -0.35740009   -0.88556141
O            -2.02634014   -0.99424312   -0.59579043
O            -4.26119144   -0.87055648   -0.40756384
C            -4.33052333   -2.05839518    0.37645015
C            -5.79649556   -2.27376721    0.69354350
C            -3.59773508   -1.85521485    1.69689996
C            -3.82132301   -3.26254060   -0.33369954
H            -3.52451700    0.76259095   -2.67363713
H            -3.45328100    1.74906198   -1.20018376
H            -6.25422009   -2.70160867   -0.23286236
H            -6.26160017   -1.28583987    0.88952775
H            -5.93622175   -2.99600762    1.52132121
H            -3.98405397   -2.52949800    2.46236441
H            -2.51401640   -1.95724615    1.54818351
H            -3.76364349   -0.78904193    2.01117794
H            -3.85477741   -3.22203926   -1.42078699
H            -4.38812374   -4.19305619   -0.03545025
H            -2.77089420   -3.47079891    0.01605359
O             0.00000000    0.00000000    0.00000000
C             2.40555702    0.00000000   -0.00000000
C             1.12477966   -0.43250345    0.68253232
C             1.12396929    0.01304088    2.12938563
C             1.09532837   -1.94735383    0.66759831
H             2.54491719   -0.69331876   -0.87459341
H             3.25050003   -0.08204313    0.71119204
H             2.26843548    1.03559130   -0.39155483
H             2.19866110    0.15699220    2.42101163
H             0.73905390   -0.78886175    2.79132480
H             0.63147211    0.98699994    2.27611890
H             1.99127256   -2.39054926    1.16188261
H             0.98932583   -2.25553204   -0.38893429
H             0.15669605   -2.24673920    1.17896682



