%chk=sp_39_2.chk
%mem=300GB
%nprocshared=68
#p opt=(calcfc,ts,noeigen,maxstep=5) freq b3lyp def2svp em=gd3bj  

Freeze index  [11, 18]  [18, 19]  [3, 19]  [3, 32]  [3, 28]  [3, 21] // Local index  3  18  20  32  (20,)  [11, 18]  [18, 19]

-1 1
Fe            1.03393954    4.63946824    3.22816884
C            -1.47575468    2.73684116   -2.78408235
Pd           -0.56571170    4.08604508   -0.45370117
C             0.72255607    6.46825048    0.58488268
H             2.54071711    6.03973678    5.18136966
H             3.55077346    5.81768149    2.67773821
H             3.05251753    3.29577355    1.80047487
C            -0.04959626    1.39368322    0.26755803
O            -1.87865189    2.49616270   -3.90279539
C             0.16950291    5.74965733    1.77249149
O             0.63867182    1.90929020    1.20960386
C            -0.92905919    4.04835938    2.87391230
C            -0.90628737    5.18611042    3.72997322
C            -0.25419425    6.25196321    3.03643184
H            -1.32280453    3.06680107    3.13272150
H            -1.29575221    5.23200807    4.74590906
H            -0.08165413    7.25745517    3.41808983
H             0.33877724    3.19594793    1.26426375
C            -0.25936231    4.36663929    1.63977478
C            -1.53414491    1.64667942   -1.68535358
O            -1.01938249    3.91304342   -2.41034073
C             2.81161458    3.69717551    2.78273184
C             3.06170335    5.02542411    3.24229943
C             2.52899621    5.14312926    4.56412964
C             1.95461148    3.88497299    4.92078087
C             2.12445281    2.99281276    3.81915465
H             1.76123882    1.97034376    3.75270858
N            -0.82940835    2.12158811   -0.50171954
H            -1.03394894    0.75096485   -2.08511995
H             1.60989666    7.05821041    0.68201619
H             1.44616160    3.65730392    5.85607166
O             0.07054598    6.36806541   -0.67260015
C            -2.98830959    1.29514228   -1.41661439
C            -3.70894089    2.55198302   -1.03337320
C            -2.99711137    0.25056441   -0.32588012
C            -3.66673877    0.71096461   -2.62511414
H            -3.00671008    3.41847828   -0.89199499
H            -4.26410223    2.45884692   -0.06621641
H            -4.39596889    2.89155332   -1.85957887
H            -3.07562907   -0.76566057   -0.78416661
H            -3.84381272    0.37486183    0.35121804
H            -2.06828430    0.26279709    0.27847577
H            -2.88393973    0.37236970   -3.31974398
H            -4.29839241   -0.17952536   -2.37114795
H            -4.30363285    1.43713129   -3.16433653
O             0.00000000    0.00000000    0.00000000
C             2.40555702   -0.00000000   -0.00000000
C             1.12477966   -0.59529226    0.54638514
C             1.12396929   -0.54181966    2.05934084
C             1.09532837   -2.05400889    0.13755695
H             2.54491719   -0.44169621   -1.02494342
H             3.25050003   -0.26438083    0.66530291
H             2.26843548    1.10182085   -0.10842208
H             2.19866110   -0.47876134    2.37838841
H             0.73905390   -1.48840927    2.48966561
H             0.63147211    0.36034489    2.45459522
H             1.99127256   -2.61061178    0.49940275
H             0.98932583   -2.07647760   -0.96277487
H             0.15669605   -2.47620964    0.55334039



