%chk=sp_3_1.chk
%mem=300GB
%nprocshared=68
#p opt=(calcfc,ts,noeigen,maxstep=5) freq b3lyp def2svp em=gd3bj  

Freeze index  [11, 18]  [18, 19]  [3, 19]  [3, 33]  [3, 28]  [3, 21] // Local index  3  18  20  33  (20,)  [11, 18]  [18, 19]

0 1
Fe            1.03394179   -5.10707902   -2.42144659
C            -1.47576360   -2.24184884    3.19617341
Pd           -0.56572880   -3.95583922    1.11935208
C             0.72253763   -6.47638200    0.48656626
H             2.54072049   -6.80942290   -4.11782858
H             3.55077443   -6.17876857   -1.68477044
H             3.05251301   -3.54694265   -1.23408730
C            -0.04959626   -1.41870765   -0.03476807
O            -1.87865708   -1.82050957    4.26009729
C             0.16951310   -5.96282978   -0.80304122
O             0.63866909   -2.08217730   -0.87921343
C            -0.92906031   -4.46576910   -2.16918416
C            -0.90628345   -5.72879163   -2.82654661
C            -0.25419697   -6.66610493   -1.96718177
H            -1.32281003   -3.54013352   -2.58585687
H            -1.29575117   -5.94109765   -3.82109782
H            -0.08164910   -7.72065619   -2.17833479
H             0.33877605   -3.36030568   -0.72160161
C            -0.25936506   -4.57680690   -0.89951218
C            -1.53414276   -1.34715212    1.93315449
O            -1.01937886   -3.46349459    3.02090903
C             2.81162773   -4.10436870   -2.13699076
C             3.06169526   -5.49010095   -2.37191511
C             2.52900298   -5.82353383   -3.65640339
C             1.95461693   -4.64114662   -4.21505629
C             2.12445302   -3.57999638   -3.27510982
H             1.76124190   -2.56052604   -3.37768758
N            -0.82940155   -2.01021136    0.84371754
H            -1.03396087   -0.39791178    2.18021458
H             1.71998224   -6.05729252    0.68133434
H             0.80272902   -7.57813927    0.50735379
H             1.45485386   -4.57156377   -5.15862264
N            -0.15344028   -6.00446105    1.56861153
C             0.31907037   -6.35645198    2.87945780
C            -1.53607742   -6.25920682    1.34634469
H             0.13174365   -7.39972463    3.16253055
H             1.41670886   -6.12479721    2.89688641
H            -0.13051775   -5.63221556    3.60677938
H            -1.74501924   -6.90442891    0.48069908
H            -2.01101848   -6.67287372    2.26567847
H            -2.03760526   -5.26781655    1.16653136
C            -2.98832289   -1.04461256    1.61029342
H            -3.47150881   -0.56577763    2.48898723
H            -3.00692990   -0.31369478    0.76411091
H            -3.51709590   -1.97903210    1.32007310
O             0.00000000    0.00000000    0.00000000
C             2.40555702   -0.00000000   -0.00000000
C             1.12477966    0.49735429   -0.63682675
C             1.12396929    0.19585007   -2.12039996
C             1.09532837    2.00343784   -0.47340389
H             2.54491719    0.60420559    0.93837101
H             3.25050003    0.15139400   -0.69971783
H             2.26843548   -1.06899893    0.28810729
H             2.19866110    0.08119232   -2.42473744
H             0.73905390    1.05880331   -2.70050598
H             0.63147211   -0.75902399   -2.36194173
H             1.99127256    2.49297116   -0.92184151
H             0.98932583    2.20651673    0.60825868
H             0.15669605    2.35152977   -0.95294676



