%chk=sp_31_2.chk
%mem=300GB
%nprocshared=68
#p opt=(calcfc,ts,noeigen,maxstep=5) freq b3lyp def2svp em=gd3bj  

Freeze index  [11, 18]  [18, 19]  [3, 19]  [3, 32]  [3, 28]  [3, 21] // Local index  3  18  20  32  (20,)  [11, 18]  [18, 19]

-1 1
Fe            0.33681377    5.75907787   -0.87718279
C            -3.45909653    0.34428388   -2.40582294
Pd           -2.27781865    2.91007742   -2.08891742
C            -1.71738953    5.46082293   -3.35098296
H             1.83536033    8.14984265   -1.16828882
H             1.72689692    6.42497737   -3.25413528
H             1.93844383    3.90538249   -2.26176320
C            -0.50737150    1.32630563   -0.54211394
O            -4.15673342   -0.57335123   -2.78403016
C            -1.40591046    5.64295095   -1.90099538
O             0.24591182    2.35497976   -0.57959270
C            -1.19675084    4.99087141    0.30024274
C            -1.26979415    6.41261339    0.26597338
C            -1.43208455    6.81726047   -1.09497374
H            -1.03274823    4.38477129    1.18974056
H            -1.19174232    7.07949470    1.12334199
H            -1.52486961    7.84103536   -1.45515635
H            -0.48014116    3.36460547   -1.02893397
C            -1.27520633    4.47681300   -1.04232652
C            -2.63152908    0.20641915   -1.10382027
O            -3.38763560    1.50680785   -3.01805346
C             1.98667141    4.83042975   -1.69084297
C             1.86406315    6.15532953   -2.20814902
C             1.92161707    7.06638335   -1.10746275
C             2.08459467    6.30227566    0.08822206
C             2.11996815    4.92088928   -0.27078376
H             2.19156168    4.07693029    0.41066746
N            -1.74964491    1.35891508   -0.97273190
H            -2.03430356   -0.71449537   -1.19075534
H            -1.17577264    6.01569681   -4.08829633
H             2.13801093    6.70221649    1.09932150
O            -2.73209857    4.55127597   -3.75037455
C            -3.58317169    0.04301342    0.07009221
C            -3.47279486   -1.32791955    0.71098309
C            -2.11377302   -1.62244978    1.24045289
C            -3.93715453   -2.32738017   -0.33324423
H            -3.47038206    0.84284737    0.84337773
H            -4.62395523    0.14609314   -0.30871626
H            -4.18907932   -1.38923906    1.55510170
H            -2.01822446   -1.23552715    2.28515599
H            -2.00233306   -2.73245549    1.30526470
H            -1.28807495   -1.23083769    0.66039021
H            -3.67134624   -1.96332585   -1.35964422
H            -3.47625374   -3.31164202   -0.15545459
H            -5.06209310   -2.38992958   -0.26738356
C             0.00000000    0.00000000    0.00000000
H             1.11123978    0.00000000    0.00000000
H            -0.34606400   -0.09248624    1.05938459
H            -0.40221157   -0.83974876   -0.60829210



