%chk=sp_32_1.chk
%mem=300GB
%nprocshared=68
#p opt=(calcfc,ts,noeigen,maxstep=5) freq b3lyp def2svp em=gd3bj  

Freeze index  [11, 18]  [18, 19]  [3, 19]  [3, 33]  [3, 28]  [3, 21] // Local index  3  18  20  33  (20,)  [11, 18]  [18, 19]

0 1
Fe            1.03393679   -5.28456371   -2.00477340
C            -1.47580809   -1.97876247    3.36539335
Pd           -0.56576567   -3.85352042    1.43246750
C             0.72248862   -6.41665101    1.00352830
H             2.54071844   -7.11727632   -3.55939896
H             3.55074656   -6.29384968   -1.18463959
H             3.05251335   -3.63439587   -0.94611000
C            -0.04959626   -1.41693679    0.07893251
O            -1.87871804   -1.47359179    4.39214746
C             0.16948281   -6.00799066   -0.32306710
O             0.63867078   -2.14589847   -0.70968290
C            -0.92906333   -4.62510203   -1.80469980
C            -0.90628786   -5.93669909   -2.35882371
C            -0.25421547   -6.80220507   -1.42717676
H            -1.32278573   -3.73578726   -2.29413681
H            -1.29573850   -6.22794134   -3.33320165
H            -0.08168091   -7.87027914   -1.55321875
H             0.33877068   -3.40730175   -0.45024410
C            -0.25938640   -4.63413558   -0.53020039
C            -1.53417216   -1.18806640    2.03479206
O            -1.01943367   -3.21052010    3.28849102
C             2.81163217   -4.26231471   -1.80147419
C             3.06169957   -5.66240783   -1.92472018
C             2.52901108   -6.09760407   -3.17838627
C             1.95464291   -4.96373748   -3.82992768
C             2.12447503   -3.83074716   -2.97794234
H             1.76127232   -2.82274209   -3.16181547
N            -0.82942313   -1.93621595    1.00194315
H            -1.03397558   -0.22209598    2.20506083
H             1.71992624   -5.98332525    1.16412281
H             0.80267410   -7.51320432    1.11245327
H             1.45490014   -4.96990835   -4.77603563
N            -0.15349959   -5.85960483    2.04430493
C            -1.63187750   -7.65706857    1.40073874
C            -1.51365882   -6.20179199    1.77323179
C             0.32107215   -6.42965616    3.27484831
C             1.77205155   -5.93258375    3.41907903
H            -2.68941585   -7.99558799    1.29063358
H            -1.16836800   -7.73812628    0.37844370
H            -1.04603880   -8.29203858    2.04897924
H            -1.93878553   -5.54667412    0.96410135
H            -2.17506810   -5.98198859    2.65981691
H            -0.26266151   -6.10233252    4.16074562
H             0.32229643   -7.53003287    3.18461003
H             2.30484643   -5.98329105    2.45829641
H             2.30201981   -6.51844004    4.20553118
H             1.67535755   -4.88776763    3.80114059
C            -2.98834092   -0.91232096    1.68871651
C            -2.99524808    0.05583601    0.52242165
C            -3.71173513   -2.19543385    1.34761174
C            -5.14256317   -1.97863712    0.98278497
H            -2.33943859   -0.38681973   -0.25298185
H            -4.02005429    0.25483008    0.15820445
H            -2.57192470    1.01939273    0.91157784
H            -3.45698107   -0.48371009    2.58554288
H            -3.68427961   -2.83060425    2.25422059
H            -3.18391041   -2.77184977    0.55399819
H            -5.60225359   -2.97513725    0.81638355
H            -5.68096092   -1.53940775    1.85351420
H            -5.28891986   -1.34112907    0.09414383
O             0.00000000    0.00000000    0.00000000
C             2.40555702    0.00000000    0.00000000
C             1.12477966    0.44477001   -0.67460302
C             1.12396929    0.02545130   -2.12927346
C             1.09532837    1.95910296   -0.63228953
H             2.54491719    0.67739664    0.88698272
H             3.25050003    0.09488499   -0.70959286
H             2.26843548   -1.04249972    0.37277186
H             2.19866110   -0.11320517   -2.42345382
H             0.73905390    0.83918791   -2.77660956
H             0.63147211   -0.94569633   -2.29358771
H             1.99127256    2.41116049   -1.11848203
H             0.98932583    2.24813329    0.42964098
H             0.15669605    2.26768273   -1.13816290



