%chk=sp_42_1.chk
%mem=300GB
%nprocshared=68
#p opt=(calcfc,ts,noeigen,maxstep=5) freq b3lyp def2svp em=gd3bj  

Freeze index  [11, 18]  [18, 19]  [3, 19]  [3, 33]  [3, 28]  [3, 21] // Local index  3  18  20  33  (20,)  [11, 18]  [18, 19]

0 1
Fe            1.03394172    5.12314405    2.38724355
C            -1.47580922    2.22042872   -3.21108058
Pd           -0.56575042    3.94826664   -1.14575691
C             0.72250103    6.47299628   -0.52984962
H             2.54072180    6.83680842    4.07219565
H             3.55075626    6.18991085    1.64340179
H             3.05251255    3.55513456    1.21031566
C            -0.04959626    1.41890825    0.02528992
O            -1.87870780    1.79197701   -4.27214842
C             0.16948832    5.96806354    0.76316512
O             0.63866380    2.08801662    0.86527884
C            -0.92906837    4.48016503    2.13930552
C            -0.90628030    5.74756274    2.78819711
C            -0.25421060    6.67909496    1.92259961
H            -1.32278842    3.55732270    2.56214534
H            -1.29574780    5.96649052    3.78132361
H            -0.08166415    7.73504180    2.12668613
H             0.33876345    3.36505042    0.69911298
C            -0.25937705    4.58271540    0.86890594
C            -1.53416342    1.33420583   -1.94210049
O            -1.01942264    3.44321237   -3.04397017
C             2.81162772    4.11857833    2.10947274
C             3.06169228    5.50586052    2.33513257
C             2.52901517    5.84786522    3.61736913
C             1.95464111    4.66922861    4.18392223
C             2.12448085    3.60182241    3.25108676
H             1.76126053    2.58304569    3.36048337
N            -0.82942351    2.00452168   -0.85713100
H            -1.03397491    0.38333795   -2.18280772
H             1.71994986    6.05260747   -0.72181686
H             0.80267641    7.57458272   -0.55800090
H             1.45488974    4.60594847    5.12793638
N            -0.15348815    5.99384269   -1.60870690
C            -1.89082815    8.12215631   -2.40147320
C            -0.47286429    8.06177100   -2.90550222
C             0.03730856    6.66105206   -2.86515985
C            -1.56117274    6.03334347   -1.23403113
C            -1.87871402    7.51483262   -0.99712662
H            -2.50912583    7.50320029   -3.08336113
H            -2.30969854    9.12020772   -2.34598966
H             0.16455219    8.78655510   -2.37198122
H            -0.51752865    8.36299140   -3.99203154
H             1.10686502    6.61241104   -3.13777800
H            -0.55843016    6.07414331   -3.62383522
H            -1.79945340    5.41133672   -0.37414969
H            -2.12715042    5.71001736   -2.14421599
H            -2.82967815    7.66037565   -0.48489048
H            -1.03035647    8.01005387   -0.45544740
C            -2.98833427    1.03380036   -1.61720460
C            -2.99524487   -0.01734767   -0.52511514
C            -3.71172895    2.28841443   -1.18284762
C            -5.14255260    2.04542985   -0.83491716
H            -2.33943645    0.36720625    0.28069269
H            -4.02005636   -0.24253838   -0.17649003
H            -2.57191707   -0.94974271   -0.98394242
H            -3.45697019    0.67216269   -2.54307904
H            -3.68427322    2.98841615   -2.04038942
H            -3.18391283    2.80503006   -0.34906284
H            -5.60224828    3.02702737   -0.59582753
H            -5.68095277    1.67129074   -1.73554073
H            -5.28892018    1.34441283    0.00453076
O             0.00000000    0.00000000    0.00000000
C             2.40555702    0.00000000   -0.00000000
C             1.12477966   -0.49308901    0.64013501
C             1.12396929   -0.18168083    2.12166098
C             1.09532837   -2.00023067    0.48677686
H             2.54491719   -0.61046070   -0.93431381
H             3.25050003   -0.14671630    0.70071357
H             2.26843548    1.06705044   -0.29524208
H             2.19866110   -0.06499257    2.42522572
H             0.73905390   -1.04073954    2.70751883
H             0.63147211    0.77478550    2.35681853
H             1.99127256   -2.48675737    0.93847469
H             0.98932583   -2.21053083   -0.59350495
H             0.15669605   -2.34511134    0.96863438



