%chk=sp_47_1.chk
%mem=300GB
%nprocshared=68
#p opt=(calcfc,ts,noeigen,maxstep=5) freq b3lyp def2svp em=gd3bj  

Freeze index  [11, 18]  [18, 19]  [3, 19]  [3, 37]  [3, 28]  [3, 21] // Local index  3  18  20  37  (20,)  [11, 18]  [18, 19]

0 1
Fe            1.03397728    5.21646491    2.17579595
C            -1.47577270    2.08731178   -3.29916988
Pd           -0.56571055    3.89813688   -1.30621444
C             0.72257355    6.44590811   -0.79403983
H             2.54076658    6.99756550    3.78929173
H             3.55080200    6.25189114    1.38897569
H             3.05252853    3.60161152    1.06397637
C            -0.04959626    1.41875588   -0.03274089
O            -1.87867859    1.61584269   -4.34185471
C             0.16953339    5.99428083    0.51852852
O             0.63866431    2.12163732    0.77919080
C            -0.92903441    4.56390159    1.95433734
C            -0.90625009    5.85675888    2.55087890
C            -0.25415659    6.75212332    1.64791744
H            -1.32277470    3.65911739    2.41456220
H            -1.29571030    6.11610989    3.53422039
H            -0.08161454    7.81552898    1.80866487
H             0.33879136    3.39082774    0.56095456
C            -0.25934576    4.61441620    0.68082246
C            -1.53415486    1.25370605   -1.99502499
O            -1.01939258    3.31590104   -3.18219693
C             2.81164891    4.20136590    1.93933027
C             3.06173926    5.59669503    2.10809859
C             2.52903935    5.99084308    3.37526528
C             1.95466455    4.83637530    3.98954340
C             2.12448601    3.73172089    3.10112097
H             1.76126748    2.71826867    3.25207170
N            -0.82940979    1.96781828   -0.93836493
H            -1.03396270    0.29379138   -2.19666294
H             1.72001368    6.01802724   -0.96865733
H             0.80274900    7.54542916   -0.86721013
C             1.24473089    4.80138742    5.33311970
C             0.71721282    3.67661031    5.77174783
H             1.17698114    5.70265541    5.92223510
H             0.80062117    2.80109784    5.16571417
H             0.20396348    3.65282943    6.74398510
N            -0.15342235    5.92306541   -1.85241736
C             0.31908644    6.21231498   -3.17851727
C            -1.53605868    6.18809322   -1.64251177
H             0.13176804    7.24094864   -3.51088240
H             1.41672191    5.98009974   -3.18491350
H            -0.13051334    5.45431574   -3.87057497
H            -1.74498840    6.87376001   -0.80852707
H            -2.01100091    6.55758874   -2.58047665
H            -2.03758603    5.20639219   -1.41574989
C            -2.98832524    0.96683868   -1.65812737
C            -2.99679045   -0.33058051   -0.90070588
C            -3.63773371    2.10059625   -0.95777901
H            -2.02718041   -0.51485033   -0.35488621
H            -3.04458762   -1.17597543   -1.64621965
H            -3.81308484   -0.43263508   -0.18617397
H            -3.51674692    0.79727169   -2.62953820
H            -3.86022433    1.93212844    0.10974129
H            -3.01783549    3.02497264   -1.08173219
H            -4.62544871    2.35308258   -1.43201533
O             0.00000000    0.00000000    0.00000000
C             2.40555702   -0.00000000    0.00000000
C             1.12477966   -0.46650591    0.65975892
C             1.12396929   -0.09478840    2.12731483
C             1.09532837   -1.97865728    0.56814594
H             2.54491719   -0.64814815   -0.90857500
H             3.25050003   -0.11794615    0.70612598
H             2.26843548    1.05408784   -0.33861979
H             2.19866110    0.03421303    2.42585517
H             0.73905390   -0.92917707    2.74780403
H             0.63147211    0.87049227    2.32317226
H             1.99127256   -2.44631031    1.03935694
H             0.98932583   -2.23294712   -0.50263491
H             0.15669605   -2.30354968    1.06370045



