%chk=sp_40_1.chk
%mem=300GB
%nprocshared=68
#p opt=(calcfc,ts,noeigen,maxstep=5) freq b3lyp def2svp em=gd3bj  

Freeze index  [11, 18]  [18, 19]  [3, 19]  [3, 33]  [3, 28]  [3, 21] // Local index  3  18  20  33  (20,)  [11, 18]  [18, 19]

0 1
Fe            1.03395360    5.22667169    2.15116890
C            -1.47575136    2.07171872   -3.30900624
Pd           -0.56570780    3.89192347   -1.32461503
C             0.72256025    6.44209657   -0.82444942
H             2.54074104    7.01536164    3.75625092
H             3.55079862    6.25838992    1.35947833
H             3.05252530    3.60660683    1.04698707
C            -0.04959626    1.41858525   -0.03944725
O            -1.87863878    1.59534469   -4.34943723
C             0.16952476    5.99666205    0.49024164
O             0.63867879    2.12529918    0.76916957
C            -0.92904223    4.57306346    1.93276447
C            -0.90627092    5.86872152    2.52321399
C            -0.25417039    6.75982436    1.61602922
H            -1.32278894    3.67046520    2.39726047
H            -1.29573433    6.13272390    3.50530491
H            -0.08162250    7.82397237    1.77177055
H             0.33878432    3.39343123    0.54495615
C            -0.25934272    4.61757696    0.65902563
C            -1.53413693    1.24427207   -2.00094443
O            -1.01936208    3.30085379   -3.19783221
C             2.81164467    4.21046013    1.91952297
C             3.06171497    5.60658024    2.08168157
C             2.52902051    6.00670179    3.34698186
C             1.95462630    4.85513046    3.96668811
C             2.12446728    3.74630605    3.08348750
H             1.76124747    2.73358455    3.23921746
N            -0.82939205    1.96336770   -0.94765157
H            -1.03394591    0.28341416   -2.19804736
H             1.72000570    6.01339869   -0.99703936
H             0.80275762    7.54125550   -0.90279460
H             1.45486618    4.83497021    4.91260046
N            -0.15341670    5.91426168   -1.88034140
C             0.31910024    6.19724684   -3.20779398
C            -1.53604898    6.18028535   -1.67169976
H             0.13177624    7.22429183   -3.54501284
H             1.41673536    5.96499913   -3.21309008
H            -0.13048539    5.43598431   -3.89626963
H            -1.74499130    6.86987344   -0.84096596
H            -2.01099076    6.54533119   -2.61139451
H            -2.03758443    5.19965462   -1.44031518
C            -2.98831350    0.95902330   -1.66270737
C            -2.99525924   -0.04123727   -0.52382640
C            -3.71169506    2.23214692   -1.28602043
C            -5.14253061    2.00530096   -0.92739777
H            -2.33945727    0.37964587    0.26361933
H            -4.02007188   -0.25027935   -0.16531131
H            -2.57194610   -0.99359011   -0.93965690
H            -3.45694258    0.55556084   -2.57113153
H            -3.68421120    2.89232396   -2.17458349
H            -3.18387750    2.78623715   -0.47664590
H            -5.60221030    2.99679094   -0.73331669
H            -5.68091890    1.59050760   -1.81002399
H            -5.28891490    1.34329230   -0.05686039
O             0.00000000    0.00000000    0.00000000
C             2.40555702   -0.00000000    0.00000000
C             1.12477966   -0.46338190    0.66195681
C             1.12396929   -0.08473113    2.12773915
C             1.09532837   -1.97594944    0.57749307
H             2.54491719   -0.65243591   -0.90550093
H             3.25050003   -0.11460684    0.70667564
H             2.26843548    1.05247534   -0.34359888
H             2.19866110    0.04568012    2.42566634
H             0.73905390   -0.91617730    2.75216572
H             0.63147211    0.88146461    2.31903132
H             1.99127256   -2.44136974    1.05090949
H             0.98932583   -2.23529822   -0.49207374
H             0.15669605   -2.29849563    1.07457788



