%chk=sp_4_2.chk
%mem=300GB
%nprocshared=68
#p opt=(calcfc,ts,noeigen,maxstep=5) freq b3lyp def2svp em=gd3bj  

Freeze index  [11, 18]  [18, 19]  [3, 19]  [3, 32]  [3, 28]  [3, 21] // Local index  3  18  20  32  (20,)  [11, 18]  [18, 19]

-1 1
Fe            1.03394720    5.18862086    2.24140609
C            -1.47578498    2.12874603   -3.27258912
Pd           -0.56573267    3.91429685   -1.25694235
C             0.72253833    6.45542709   -0.71267160
H             2.54074001    6.94924162    3.87724360
H             3.55077353    6.23389699    1.46771217
H             3.05251275    3.58793257    1.10931337
C            -0.04959626    1.41905593   -0.01484851
O            -1.87868717    1.67047442   -4.32112070
C             0.16950506    5.98726844    0.59408853
O             0.63867010    2.11165209    0.80588859
C            -0.92905420    4.53888220    2.01174972
C            -0.90627729    5.82411249    2.62453973
C            -0.25419606    6.73080478    1.73294430
H            -1.32279134    3.62836997    2.46052225
H            -1.29572923    6.07105494    3.61107058
H            -0.08165623    7.79210547    1.90709071
H             0.33877824    3.38348277    0.60367819
C            -0.25936513    4.60546494    0.73895864
C            -1.53415823    1.27877036   -1.97906366
O            -1.01940618    3.35577426   -3.14013285
C             2.81162364    4.17658840    1.99216946
C             3.06170780    5.56968547    2.17851504
C             2.52901672    5.94782222    3.45056114
C             1.95463549    4.78568081    4.05022036
C             2.12446238    3.69231934    3.14794932
H             1.76125652    2.67705503    3.28608965
N            -0.82941915    1.97950590   -0.91347140
H            -1.03396467    0.32146199   -2.19279443
H             1.60988128    7.05291801   -0.73477338
H             1.44618811    4.74848471    5.01210237
O             0.07052823    6.10725321   -1.92514251
C            -2.98832586    0.98767027   -1.64579361
C            -3.04019573   -0.01240079   -0.54573854
C            -3.07092718   -1.35452926   -0.86402336
C            -3.11961107   -2.33252122    0.11900975
C            -3.13906548   -1.99616668    1.45397361
C            -3.10780650   -0.64590432    1.75871732
C            -3.05940950    0.33053800    0.78637846
H            -3.45099659    1.94340792   -1.33284164
H            -3.53930322    0.65886280   -2.54734151
H            -3.05632309   -1.64666224   -1.91664166
H            -3.14309119   -3.38017685   -0.15515163
H            -3.17692700   -2.73267101    2.25181332
H            -3.12238345   -0.36044045    2.80446257
H            -3.03514360    1.39942425    1.04512386
O             0.00000000    0.00000000    0.00000000
C             2.40555702   -0.00000000   -0.00000000
C             1.12477966   -0.47478804    0.65382407
C             1.12396929   -0.12160520    2.12595047
C             1.09532837   -1.98566400    0.54315092
H             2.54491719   -0.63663996   -0.91667558
H             3.25050003   -0.12684065    0.70458260
H             2.26843548    1.05827385   -0.32530137
H             2.19866110    0.00362153    2.42609372
H             0.73905390   -0.96375158    2.73586913
H             0.63147211    0.84112906    2.33396402
H             1.99127256   -2.45922157    1.00842760
H             0.98932583   -2.22643163   -0.53075126
H             0.15669605   -2.31677925    1.03456932



