%chk=sp_46_2.chk
%mem=300GB
%nprocshared=68
#p opt=(calcfc,ts,noeigen,maxstep=5) freq b3lyp def2svp em=gd3bj  

Freeze index  [11, 18]  [18, 19]  [3, 19]  [3, 32]  [3, 28]  [3, 21] // Local index  3  18  20  32  (20,)  [11, 18]  [18, 19]

-1 1
Fe           -1.73251976    5.37520775    1.05839046
C            -0.58965842    1.00538623   -4.00759032
Pd           -1.23008246    3.20742623   -2.32829968
C            -1.18439213    6.09344750   -2.04194745
H            -1.70005946    7.75251741    2.60548364
H             0.38917305    7.24967588    0.95624358
H             0.97227497    4.60286006    1.13577073
C            -0.49636088    1.27130098   -0.39219854
O            -0.34920884    0.31664573   -4.97691778
C            -2.04420374    5.58420677   -0.93106396
O            -0.47577438    2.26327861    0.40939981
C            -3.09587628    3.97615610    0.34272317
C            -3.74731467    5.22060457    0.57687476
C            -3.11753392    6.21261053   -0.23649017
H            -3.32126597    3.03702424    0.84540725
H            -4.56731186    5.39424453    1.27209659
H            -3.38723344    7.26655534   -0.29039413
H            -1.05958956    3.28088380   -0.20053932
C            -2.02068014    4.16970565   -0.59503708
C            -0.89948791    0.34423523   -2.64158970
O            -0.65448428    2.31909899   -4.04403249
C             0.21071567    5.13610277    1.70114997
C            -0.10573750    6.52450831    1.60029723
C            -1.20840306    6.79062142    2.47103113
C            -1.56829038    5.56613638    3.11226343
C            -0.69537835    4.54276132    2.63360057
H            -0.73212653    3.48762733    2.89265929
N            -0.96898772    1.37601835   -1.61505403
H            -0.07505706   -0.35082741   -2.41910225
H            -0.61448490    6.98932272   -1.90971293
H            -2.38710587    5.43088452    3.81679936
O            -1.12356582    5.38836831   -3.27303122
C            -2.17970768   -0.46581167   -2.76515868
C            -2.31934312   -1.27930919   -1.49380388
C            -3.37084932    0.44128354   -2.97582783
C            -4.65891898   -0.30432174   -3.08684044
H            -2.22296396   -0.56301339   -0.65420984
H            -3.26799936   -1.84672327   -1.46984152
H            -1.47371919   -2.01686262   -1.49839700
H            -2.07325940   -1.10240308   -3.65457681
H            -3.20328663    0.97505034   -3.93141620
H            -3.43643396    1.23005345   -2.19210879
H            -5.45782651    0.43455327   -3.30550724
H            -4.61857733   -0.97676911   -3.97405650
H            -4.91961892   -0.88881242   -2.18799483
O             0.00000000    0.00000000    0.00000000
C             1.41083033   -0.00000000    0.00000000
C             1.94061031    1.01378560    0.94053939
C             2.20995799    2.32566383    0.56044442
C             2.70552417    3.25973311    1.45558062
C             2.94592662    2.90270849    2.76284067
C             2.68645864    1.60718408    3.16324583
C             2.19263547    0.68425766    2.26278577
H             1.79393422    0.19751944   -1.02115302
H             1.72408576   -1.01172439    0.33687517
H             2.01310165    2.58447007   -0.47388353
H             2.90331403    4.27700640    1.11843858
H             3.33765042    3.66080655    3.44912173
H             2.87529943    1.31935187    4.19812745
H             1.98003595   -0.35177005    2.56339134



