%chk=sp_45_2.chk
%mem=300GB
%nprocshared=68
#p opt=(calcfc,ts,noeigen,maxstep=5) freq b3lyp def2svp em=gd3bj  

Freeze index  [11, 18]  [18, 19]  [3, 19]  [3, 32]  [3, 28]  [3, 21] // Local index  3  18  20  32  (20,)  [11, 18]  [18, 19]

-1 1
Fe            1.03396043   -5.03782201   -2.56241616
C            -1.47579372   -2.32980744    3.13262618
Pd           -0.56573855   -3.98542241    1.00896962
C             0.72253022   -6.48741001    0.30639262
H             2.54074310   -6.69237806   -4.30544962
H             3.55078130   -6.12957330   -1.85579812
H             3.05252206   -3.51128803   -1.33215421
C            -0.04959626   -1.41719387   -0.07417366
O            -1.87870137   -1.93819885    4.20783306
C             0.16950479   -5.93821381   -0.96842948
O             0.63867281   -2.05694714   -0.93673220
C            -0.92904338   -4.40376476   -2.29245753
C            -0.90627573   -5.64803545   -2.98465635
C            -0.25419685   -6.60886456   -2.15168136
H            -1.32278040   -3.46689440   -2.68324549
H            -1.29572587   -5.83261681   -3.98474232
H            -0.08164718   -7.65714786   -2.39205042
H             0.33877409   -3.33896100   -0.81469560
C            -0.25936252   -4.55004931   -1.02635353
C            -1.53416603   -1.40037378    1.89496274
O            -1.01941680   -3.54610674    2.92348319
C             2.81163572   -4.04341542   -2.25018919
C             3.06171402   -5.42208708   -2.52354021
C             2.52902015   -5.71969201   -3.81680573
C             1.95464819   -4.52223371   -4.34238588
C             2.12446928   -3.48761322   -3.37331235
H             1.76126632   -2.46567942   -3.44751508
N            -0.82941391   -2.03288984    0.78752221
H            -1.03397066   -0.45836087    2.16831612
H             1.60987991   -7.08511260    0.29098422
H             1.44620278   -4.42478019   -5.30004940
O             0.07052273   -6.21596816    1.53831418
C            -2.98832853   -1.08894253    1.58060247
H            -3.47152242   -0.63469622    2.47225166
H            -3.00690155   -0.33479560    0.75505521
H            -3.51711940   -2.01492816    1.26451986
O             0.00000000    0.00000000    0.00000000
C             2.40555702   -0.00000000    0.00000000
C             1.12477966    0.51485660   -0.62276181
C             1.12396929    0.25469011   -2.11413959
C             1.09532837    2.01581795   -0.41755528
H             2.54491719    0.57789953    0.95479667
H             3.25050003    0.17077732   -0.69524118
H             2.26843548   -1.07659132    0.25829376
H             2.19866110    0.14853269   -2.42154535
H             0.73905390    1.13342852   -2.67004435
H             0.63147211   -0.69310402   -2.38211943
H             1.99127256    2.51762218   -0.85221800
H             0.98932583    2.18876427    0.66933226
H             0.15669605    2.37709966   -0.88724121



