%chk=sp_57_2.chk
%mem=300GB
%nprocshared=68
#p opt=(calcfc,ts,noeigen,maxstep=5) freq b3lyp def2svp em=gd3bj  

Freeze index  [11, 18]  [18, 19]  [3, 19]  [3, 32]  [3, 28]  [3, 21] // Local index  3  18  20  32  (20,)  [11, 18]  [18, 19]

-1 1
Fe           -1.73253017   -1.32061909   -5.31686484
C            -0.58973236   -4.05577695    0.78875506
Pd           -1.23013240   -3.46861770   -1.91758469
C            -1.18445363   -4.43300441   -4.65273818
H            -1.70004475   -0.92751131   -8.12587743
H             0.38914879   -2.20798024   -6.97116983
H             0.97227840   -0.92310232   -4.65018698
C            -0.49636088   -0.89424281   -0.98506633
O            -0.34929411   -4.64162492    1.82353219
C            -2.04424498   -3.21099139   -4.66257754
O            -0.47577708   -0.58888394   -2.22334866
C            -3.09589080   -1.37551671   -3.74634694
C            -3.74731979   -1.69111230   -4.97268281
C            -3.11756101   -2.84837830   -5.52621129
H            -3.32126010   -0.52204203   -3.10896931
H            -4.56731912   -1.13508961   -5.42472658
H            -3.38726734   -3.34408571   -6.45787016
H            -1.05961235   -1.57275903   -2.88631986
C            -2.02070933   -2.30689068   -3.52401639
C            -0.89954034   -2.53830470    0.80831372
O            -0.65457249   -4.64582258   -0.38556890
C             0.21071551   -0.63715576   -5.37285204
C            -0.10574630   -1.31719636   -6.58751021
C            -1.20838678   -0.64143288   -7.19773106
C            -1.56825533    0.45851546   -6.36065719
C            -0.69535345    0.45892852   -5.23087539
H            -0.73208930    1.14093724   -4.38513147
N            -0.96901945   -2.04612316   -0.56138723
H            -0.07509215   -2.04210448    1.34346802
H            -0.61455542   -4.69312939   -5.52015729
H            -2.38705863    1.15394661   -6.53690910
O            -1.12364965   -5.24897730   -3.49217156
C            -2.17975264   -2.30672009    1.59432939
C            -1.93253332   -1.53817118    2.87908483
C            -1.33955722   -0.19201624    2.65486865
C            -1.07227219   -2.43221268    3.75407210
H            -2.98186676   -1.81040956    0.99373373
H            -2.59733024   -3.29762939    1.87907373
H            -2.89718713   -1.40274245    3.40867130
H            -2.14970300    0.55817653    2.47846613
H            -0.82367934    0.11840153    3.59627341
H            -0.63163467   -0.11994836    1.83923274
H            -0.39060950   -3.05360538    3.11697428
H            -0.47782463   -1.82657345    4.45595763
H            -1.76306788   -3.13169438    4.30838563
O             0.00000000    0.00000000    0.00000000
C             1.41083033    0.00000000    0.00000000
C             1.94061031    0.42195008   -1.31694105
C             2.20995799   -0.47853624   -2.34388849
C             2.70552417   -0.06390530   -3.56938244
C             2.94592662    1.27140636   -3.80033302
C             2.68645864    2.18335256   -2.79680826
C             2.19263547    1.75917534   -1.57914855
H             1.79393422   -1.00856488    0.25409508
H             1.72408576    0.73407552    0.77343665
H             2.01310165   -1.52501936   -2.13971192
H             2.90331403   -0.80057531   -4.34773133
H             3.33765042    1.57149987   -4.77790053
H             2.87529943    3.24264443   -2.97493202
H             1.98003595    2.47070790   -0.76832272



