%chk=sp_55_1.chk
%mem=300GB
%nprocshared=68
#p opt=(calcfc,ts,noeigen,maxstep=5) freq b3lyp def2svp em=gd3bj  

Freeze index  [11, 18]  [18, 19]  [3, 19]  [3, 33]  [3, 28]  [3, 21] // Local index  3  18  20  33  (20,)  [11, 18]  [18, 19]

0 1
Fe            1.03395001    5.25447753    2.08230603
C            -1.47582334    2.02806278   -3.33590668
Pd           -0.56576832    3.87416994   -1.37560586
C             0.72249030    6.43071749   -0.90899187
H             2.54074392    7.06411708    3.66374517
H             3.55075749    6.27572570    1.27710770
H             3.05251786    3.62006617    0.99947829
C            -0.04959626    1.41794469   -0.05807803
O            -1.87873733    1.53806003   -4.36999279
C             0.16947501    6.00257785    0.41143353
O             0.63866825    2.13521769    0.74117357
C            -0.92905093    4.59803919    1.87256217
C            -0.90627173    5.90134605    2.44593320
C            -0.25420441    6.78045762    1.52712573
H            -1.32277726    3.70161419    2.34886992
H            -1.29572446    6.17820422    3.42449450
H            -0.08166819    7.84656451    1.66887437
H             0.33876652    3.40029001    0.50032949
C            -0.25937568    4.62582149    0.59833956
C            -1.53417840    1.21786813   -2.01708770
O            -1.01945584    3.25855362   -3.24088886
C             2.81163017    4.23533638    1.86399717
C             3.06170386    5.63346973    2.00781150
C             2.52902803    6.05016161    3.26775430
C             1.95466896    4.90682879    3.90254016
C             2.12448747    3.78650069    3.03397453
H             1.76128900    2.77589009    3.20300058
N            -0.82942053    1.95074646   -0.97334809
H            -1.03399707    0.25451625   -2.20156124
H             1.71992895    5.99979349   -1.07595636
H             0.80266429    7.52875609   -1.00178053
H             1.45492265    4.89908521    4.84864601
N            -0.15351818    5.88905143   -1.95786080
C             2.25893494    5.94967799   -4.84981993
C             1.72106469    5.45038405   -3.52256387
C             0.48202580    6.25366676   -3.21778589
C            -1.36785969    6.69462035   -1.89160129
H             2.56956567    7.01380868   -4.67569477
H             3.12420475    5.35383441   -5.19361825
H             1.44195581    5.98819812   -5.58784967
H             2.47158354    5.58056844   -2.73034631
H             1.47995561    4.35628439   -3.64351728
H            -0.20057798    6.15802021   -4.07997169
H             0.77244323    7.32004049   -3.10403878
H            -1.99523550    6.42033866   -1.03420236
H            -1.89512931    6.55081344   -2.85548523
H            -1.04095441    7.74854278   -1.85625008
C            -2.98834834    0.93706287   -1.67510012
C            -2.99525179   -0.04815267   -0.52317911
C            -3.71173414    2.21501334   -1.31515057
C            -5.14255653    1.99288062   -0.95354107
H            -2.33944533    0.38304394    0.25865230
H            -4.02005822   -0.25248506   -0.16192648
H            -2.57193451   -1.00587410   -0.92647095
H            -3.45699399    0.52169313   -2.57813809
H            -3.68428762    2.86347008   -2.21230271
H            -3.18391191    2.77969428   -0.51313657
H            -5.60225142    2.98682218   -0.77249314
H            -5.68097216    1.56651571   -1.83063550
H            -5.28891237    1.34236019   -0.07438081
O             0.00000000    0.00000000    0.00000000
C             2.40555702    0.00000000    0.00000000
C             1.12477966   -0.45464662    0.66798657
C             1.12396929   -0.05677437    2.12866858
C             1.09532837   -1.96819316    0.60339882
H             2.54491719   -0.66427406   -0.89685257
H             3.25050003   -0.10531424    0.70812012
H             2.26843548    1.04787111   -0.35739429
H             2.19866110    0.07753912    2.42485701
H             0.73905390   -0.87994650    2.76396295
H             0.63147211    0.91185077    2.30725254
H             1.99127256   -2.42735462    1.08288804
H             0.98932583   -2.24156912   -0.46266897
H             0.15669605   -2.28418194    1.10467763



