%chk=sp_53_1.chk
%mem=300GB
%nprocshared=68
#p opt=(calcfc,ts,noeigen,maxstep=5) freq b3lyp def2svp em=gd3bj  

Freeze index  [11, 18]  [18, 19]  [3, 19]  [3, 33]  [3, 28]  [3, 21] // Local index  3  18  20  33  (20,)  [11, 18]  [18, 19]

0 1
Fe            1.03392721   -5.10478180   -2.42627705
C            -1.47577826   -2.24486765    3.19404460
Pd           -0.56574033   -3.95689403    1.11560120
C             0.72250917   -6.47685079    0.48042865
H             2.54070853   -6.80552990   -4.12427311
H             3.55074633   -6.17718757   -1.69061075
H             3.05250845   -3.54578655   -1.23743684
C            -0.04959626   -1.41867413   -0.03610998
O            -1.87866888   -1.82453701    4.25836794
C             0.16948372   -5.96206789   -0.80868483
O             0.63867149   -2.08134539   -0.88118535
C            -0.92906655   -4.46370953   -2.17342044
C            -0.90630371   -5.72610309   -2.83197804
C            -0.25422126   -6.66423528   -1.97350269
H            -1.32280600   -3.53766779   -2.58921632
H            -1.29576594   -5.93746386   -3.82672513
H            -0.08167324   -7.71858607   -2.18565152
H             0.33876144   -3.35961702   -0.72478059
C            -0.25937475   -4.57594946   -0.90384658
C            -1.53415320   -1.34898308    1.93187486
O            -1.01939918   -3.46634953    3.01762157
C             2.81162118   -4.10235608   -2.14087173
C             3.06168643   -5.48787140   -2.37710749
C             2.52898650   -5.82007814   -3.66191005
C             1.95461122   -4.63715692   -4.21945845
C             2.12445127   -3.57690624   -3.27849379
H             1.76124427   -2.55732176   -3.38010665
N            -0.82940575   -2.01100645    0.84181025
H            -1.03395919   -0.39998000    2.17983344
H             1.71996636   -6.05794576    0.67559317
H             0.80268971   -7.57861621    0.50017233
H             1.45485766   -4.56667356   -5.16295407
N            -0.15346942   -6.00594119    1.56292464
C             0.31903881   -6.35918079    2.87342447
C            -1.53610997   -6.26047935    1.34040533
H             0.13170152   -7.40271698    3.15550796
H             1.41667295   -6.12754708    2.89108257
H            -0.13054638   -5.63563483    3.60143631
H            -1.74504231   -6.90487006    0.47414637
H            -2.01105186   -6.67500557    2.25934449
H            -2.03762371   -5.26891664    1.16153041
C            -2.98832537   -1.04612313    1.60929788
C            -3.60632820   -0.02199906    2.51691821
C            -2.94036996    1.30580934    2.49979821
H            -3.15994157   -0.80303891    0.53933254
H            -3.57004788   -2.00040977    1.77817865
H            -3.66921205   -0.40562201    3.55591259
H            -4.67134877    0.08860935    2.18330280
H            -2.53770985    1.54349007    3.50759840
H            -2.16653304    1.41818840    1.71539769
H            -3.69134976    2.11548103    2.28850486
O             0.00000000    0.00000000    0.00000000
C             2.40555702    0.00000000    0.00000000
C             1.12477966    0.49795643   -0.63635603
C             1.12396929    0.19785562   -2.12021376
C             1.09532837    2.00388473   -0.47150867
H             2.54491719    0.60331774    0.93894209
H             3.25050003    0.15205578   -0.69957432
H             2.26843548   -1.06927097    0.28709602
H             2.19866110    0.08348579   -2.42465956
H             0.73905390    1.06135719   -2.69950328
H             0.63147211   -0.75678954   -2.36265861
H             1.99127256    2.49384200   -0.91948305
H             0.98932583    2.20594040    0.61034550
H             0.15669605    2.35243009   -0.95072207



