%chk=sp_5_1.chk
%mem=300GB
%nprocshared=68
#p opt=(calcfc,ts,noeigen,maxstep=5) freq b3lyp def2svp em=gd3bj  

Freeze index  [11, 18]  [18, 19]  [3, 19]  [3, 39]  [3, 28]  [3, 21] // Local index  3  18  20  39  (20,)  [11, 18]  [18, 19]

0 1
Fe            1.03394184    5.22886936    2.14581518
C            -1.47578954    2.06832005   -3.31110320
Pd           -0.56573869    3.89056000   -1.32857604
C             0.72252704    6.44125525   -0.83103559
H             2.54072926    7.01922245    3.74905225
H             3.55077989    6.25978956    1.35305816
H             3.05251481    3.60768657    1.04326899
C            -0.04959626    1.41854468   -0.04088018
O            -1.87868459    1.59088405   -4.35105142
C             0.16950278    5.99715034    0.48410499
O             0.63865913    2.12608001    0.76699958
C            -0.92905179    4.57502872    1.92809658
C            -0.90628298    5.87129261    2.51721391
C            -0.25418947    6.76147473    1.60912130
H            -1.32278825    3.67289795    2.39351767
H            -1.29574268    6.13629316    3.49904301
H            -0.08165388    7.82577845    1.76377153
H             0.33877407    3.39399666    0.54147827
C            -0.25936720    4.61824634    0.65432305
C            -1.53416552    1.24221594   -2.00219170
O            -1.01941275    3.29756022   -3.20118002
C             2.81163202    4.21244918    1.91519199
C             3.06170480    5.60872117    2.07594594
C             2.52900695    6.01013422    3.34082069
C             1.95463403    4.85920161    3.96171262
C             2.12446916    3.74946439    3.07964473
H             1.76126003    2.73689821    3.23641141
N            -0.82940528    1.96238887   -0.94964780
H            -1.03397505    0.28115844   -2.19831346
H             1.71997158    6.01238619   -1.00319163
H             0.80270866    7.54032008   -0.91050633
C             1.24471443    4.83192713    5.30546188
C             2.16872735    5.07531299    6.46818517
H             0.48672787    5.64763180    5.31009727
H             0.71342848    3.88618215    5.49458737
H             2.79840610    5.96965194    6.35350485
H             1.50616415    5.26975730    7.35878193
H             2.77906460    4.16658640    6.70578733
N            -0.15345950    5.91234243   -1.88639022
C             0.31904234    6.19398657   -3.21412485
C            -1.53609658    6.17858031   -1.67800734
H             0.13172804    7.22069229   -3.55237656
H             1.41668448    5.96173377   -3.21920425
H            -0.13054474    5.43203491   -3.90183183
H            -1.74503042    6.86900630   -0.84796284
H            -2.01103973    6.54266844   -2.61807284
H            -2.03762383    5.19818115   -1.44562665
C            -2.98833606    0.95729786   -1.66364969
C            -2.99680913   -0.33575239   -0.89879364
C            -3.63772867    2.09506010   -0.96982129
H            -2.02719494   -0.51689187   -0.35192477
H            -3.04461722   -1.18540894   -1.63943711
H            -3.81309662   -0.43369431   -0.18367973
H            -3.51676363    0.78216176   -2.63407014
H            -3.86021992    1.93272430    0.09864915
H            -3.01782557    3.01870995   -1.09907159
H            -4.62545579    2.34483199   -1.44548944
O             0.00000000    0.00000000    0.00000000
C             2.40555702    0.00000000    0.00000000
C             1.12477966   -0.46271300    0.66242454
C             1.12396929   -0.08258180    2.12782365
C             1.09532837   -1.97536509    0.57948873
H             2.54491719   -0.65335025   -0.90484142
H             3.25050003   -0.11389295    0.70679105
H             2.26843548    1.05212773   -0.34466184
H             2.19866110    0.04813032    2.42561896
H             0.73905390   -0.91339681    2.75308977
H             0.63147211    0.88380667    2.31813975
H             1.99127256   -2.44030695    1.05337504
H             0.98932583   -2.23579413   -0.48981556
H             0.15669605   -2.29740900    1.07689909



