%chk=sp_52_1.chk
%mem=300GB
%nprocshared=68
#p opt=(calcfc,ts,noeigen,maxstep=5) freq b3lyp def2svp em=gd3bj  

Freeze index  [11, 18]  [18, 19]  [3, 19]  [3, 40]  [3, 28]  [3, 21] // Local index  3  18  20  40  (20,)  [11, 18]  [18, 19]

0 1
Fe            1.03393457    5.21899725    2.16970518
C            -1.47583967    2.08343531   -3.30158945
Pd           -0.56577851    3.89659590   -1.31074499
C             0.72247696    6.44499827   -0.80155044
H             2.54072602    7.00199151    3.78111566
H             3.55074333    6.25354503    1.38164910
H             3.05249030    3.60289236    1.05974672
C            -0.04959626    1.41871655   -0.03440286
O            -1.87875272    1.61075503   -4.34369648
C             0.16945552    5.99487713    0.51155367
O             0.63867032    2.12254891    0.77671189
C            -0.92906081    4.56614861    1.94904614
C            -0.90629820    5.85969772    2.54408005
C            -0.25421626    6.75403169    1.64006380
H            -1.32279323    3.66189809    2.41032504
H            -1.29573850    6.12019861    3.52711521
H            -0.08168638    7.81761377    1.79957408
H             0.33876507    3.39147317    0.55700347
C            -0.25939984    4.61518747    0.67545398
C            -1.53418938    1.25134781   -1.99647404
O            -1.01947310    3.31217228   -3.18605138
C             2.81162469    4.20364772    1.93441615
C             3.06169580    5.59917939    2.10154940
C             2.52900302    5.99478996    3.36826433
C             1.95465578    4.84103050    3.98388159
C             2.12448312    3.73533609    3.09675045
H             1.76128042    2.72206602    3.24887583
N            -0.82943226    1.96670193   -0.94065352
H            -1.03399400    0.29120912   -2.19700502
H             1.71991290    6.01691107   -0.97567063
H             0.80264117    7.54442834   -0.87599017
C             1.24474639    4.80759093    5.32750230
O             2.22985453    5.04317821    6.29544210
C             3.20588857    4.05910842    6.09901870
H             0.41185035    5.53638168    5.38982650
H             0.76562194    3.80578955    5.51523054
H             2.74290532    3.06767122    6.22782563
H             4.00910701    4.12565185    6.88650283
H             3.73421283    4.18691174    5.13492875
N            -0.15352455    5.92090064   -1.85930728
C             0.31897747    6.20862006   -3.18574722
C            -1.53615665    6.18617702   -1.64970211
H             0.13164348    7.23685234   -3.51931042
H             1.41661799    5.97638509   -3.19189065
H            -0.13061982    5.44981081   -3.87692494
H            -1.74507958    6.87280178   -0.81651330
H            -2.01111473    6.55456131   -2.58808339
H            -2.03767169    5.20472913   -1.42179039
C            -2.98835233    0.96487265   -1.65922162
C            -2.99680649   -0.33166440   -0.90029098
C            -3.63774972    2.09944427   -0.96018344
H            -2.02718700   -0.51529368   -0.35426222
H            -3.04461361   -1.17792585   -1.64481942
H            -3.81309193   -0.43288517   -0.18562489
H            -3.51677969    0.79417527   -2.63042719
H            -3.86023189    1.93221818    0.10753454
H            -3.01785283    3.02367942   -1.08521490
H            -4.62548085    2.35138083   -1.43469525
O             0.00000000    0.00000000    0.00000000
C             2.40555702    0.00000000   -0.00000000
C             1.12477966   -0.46573273    0.66030495
C             1.12396929   -0.09229631    2.12742441
C             1.09532837   -1.97799037    0.57046343
H             2.54491719   -0.64921205   -0.90781511
H             3.25050003   -0.11711888    0.70626366
H             2.26843548    1.05369044   -0.33985436
H             2.19866110    0.03705475    2.42581343
H             0.73905390   -0.92595754    2.74889062
H             0.63147211    0.87321313    2.32215094
H             1.99127256   -2.44509109    1.04222193
H             0.98932583   -2.23353439   -0.50001880
H             0.15669605   -2.30230204    1.06639819



