%chk=sp_51_1.chk
%mem=300GB
%nprocshared=68
#p opt=(calcfc,ts,noeigen,maxstep=5) freq b3lyp def2svp em=gd3bj  

Freeze index  [11, 18]  [18, 19]  [3, 19]  [3, 44]  [3, 28]  [3, 21] // Local index  3  18  20  44  (20,)  [11, 18]  [18, 19]

0 1
Fe            1.03394108    5.48609574    1.35959973
C            -1.47580345    1.56285492   -3.57753162
Pd           -0.56575486    3.65496166   -1.88221919
C             0.72250067    6.25096177   -1.76232584
H             2.54072858    7.49128413    2.68433852
H             3.55076474    6.39026525    0.42484671
H             3.05250537    3.72133896    0.50549509
C            -0.04959626    1.39738438   -0.24750172
O            -1.87870282    0.93872721   -4.53664690
C             0.16948253    6.00358648   -0.39644800
O             0.63866588    2.21527140    0.44845619
C            -0.92905405    4.80747282    1.23967067
C            -0.90628650    6.17583819    1.63326317
C            -0.25420576    6.92392874    0.60496307
H            -1.32278259    3.98293714    1.83178617
H            -1.29575256    6.58131170    2.56589716
H            -0.08167661    7.99941711    0.60260201
H             0.33877371    3.43669369    0.04028539
C            -0.25937856    4.66430750   -0.02678188
C            -1.53416552    0.93665589   -2.16205297
O            -1.01944200    2.79498422   -3.64821787
C             2.81161803    4.44689064    1.27980286
C             3.06169759    5.85167716    1.23501734
C             2.52900771    6.43341403    2.42776764
C             1.95463250    5.38543931    3.21001206
C             2.12446548    4.15883594    2.49937101
H             1.76126286    3.17999986    2.80224731
N            -0.82941908    1.80275765   -1.22589596
H            -1.03396701   -0.04272955   -2.21580573
H             1.71995246    5.80155687   -1.87004484
H             0.80267430    7.32668162   -2.00138577
C             1.24471957    5.55459417    4.54335204
N             2.13575096    5.51733522    5.68493019
C             2.85204198    4.24885862    5.76302444
C             3.18780624    6.52310268    5.48522261
H             0.74197227    6.54438215    4.56997873
H             0.45064223    4.79254372    4.69128649
H             2.19519926    3.38499521    5.85452796
H             3.56345866    4.20710026    4.91508655
H             3.49824312    4.33583731    6.68305224
H             3.60160727    6.72332410    6.49366431
H             2.78675383    7.40691594    4.99350452
H             4.01513384    6.06613365    4.87123340
N            -0.15349072    5.57367193   -2.72918272
C             0.31902305    5.65850070   -4.08380597
C            -1.53612155    5.86745669   -2.56189118
H             0.13168456    6.62483351   -4.56830148
H             1.41665890    5.42800559   -4.05492252
H            -0.13057066    4.80431594   -4.65292724
H            -1.74506106    6.67165230   -1.84151996
H            -2.01107047    6.09044687   -3.54502371
H            -2.03764230    4.93147968   -2.18888972
C            -2.98833403    0.70419711   -1.78554930
C            -2.99680150   -0.46336263   -0.84014564
C            -3.63773549    1.93104381   -1.26522606
H            -2.02718389   -0.56273496   -0.27269505
H            -3.04460693   -1.41202916   -1.44883970
H            -3.81309317   -0.45587717   -0.11839332
H            -3.51675156    0.38928885   -2.72001082
H            -3.86022516    1.92640817   -0.18449901
H            -3.01783203    2.82593833   -1.52791196
H            -4.62545983    2.10870364   -1.77225948
O             0.00000000    0.00000000    0.00000000
C             2.40555702    0.00000000   -0.00000000
C             1.12477966   -0.36106566    0.72287011
C             1.12396929    0.22889272    2.11708794
C             1.09532837   -1.86962245    0.86161844
H             2.54491719   -0.77842874   -0.79978325
H             3.25050003   -0.00950561    0.71584554
H             2.26843548    0.99055008   -0.49454531
H             2.19866110    0.40167287    2.39261421
H             0.73905390   -0.50175629    2.85692801
H             0.63147211    1.21271048    2.16430576
H             1.99127256   -2.26041327    1.39829497
H             0.98932583   -2.28334433   -0.15821937
H             0.15669605   -2.11561211    1.40070882



