%chk=sp_59_1.chk
%mem=300GB
%nprocshared=68
#p opt=(calcfc,ts,noeigen,maxstep=5) freq b3lyp def2svp em=gd3bj  

Freeze index  [11, 18]  [18, 19]  [3, 19]  [3, 33]  [3, 28]  [3, 21] // Local index  3  18  20  33  (20,)  [11, 18]  [18, 19]

0 1
Fe           -3.20033955   -3.51013172   -3.38919040
C             1.41952005   -3.65480762    1.58090114
Pd           -0.49128137   -4.19206898   -0.45363200
C            -1.24604670   -5.96398635   -2.62247459
H            -4.53132081   -4.08063684   -5.82827273
H            -1.83347954   -4.30740833   -5.73902191
H            -0.87049274   -2.21800826   -4.29510246
C            -0.50737150   -1.35743574   -0.45863096
O             2.28863627   -3.77781223    2.41832800
C            -2.43038547   -5.08625784   -2.37834476
O            -1.14093591   -1.48767741   -1.55801363
C            -3.61551973   -3.39503676   -1.35384346
C            -4.54655413   -4.26012877   -1.99622860
C            -3.81606890   -5.32714648   -2.60461209
H            -3.86161525   -2.46906712   -0.83664099
H            -5.62595287   -4.12233448   -2.03873259
H            -4.23950142   -6.15703076   -3.16890994
H            -1.51293028   -2.75271744   -1.65629579
C            -2.27925278   -3.88223979   -1.57721742
C             0.57906583   -2.35528779    1.51763600
O             1.09597104   -4.59713445    0.72138360
C            -1.91202034   -2.39953666   -4.55250206
C            -2.42217219   -3.50286647   -5.30109124
C            -3.84635629   -3.38348516   -5.34885072
C            -4.21329424   -2.20314096   -4.63317329
C            -3.01946707   -1.59749271   -4.13684637
H            -2.95543249   -0.70791763   -3.51528491
N            -0.25753081   -2.38372533    0.32496186
H             0.01865060   -2.26010511    2.42413069
H            -0.53586133   -5.48373753   -3.31056806
H            -1.52340755   -6.94628413   -3.04540630
H            -5.21108115   -1.85306598   -4.46952344
N            -0.54461202   -6.13540128   -1.34204989
C             0.67239281   -6.89141682   -1.45520053
C            -1.39080194   -6.52757033   -0.26681173
H             0.52524834   -7.97553410   -1.53688005
H             1.21659142   -6.48981148   -2.35037532
H             1.32371786   -6.61595300   -0.58597236
H            -2.41318536   -6.79701135   -0.56919286
H            -0.92506495   -7.35493555    0.31664103
H            -1.45936333   -5.65748108    0.44378171
C             1.55205494   -1.19013803    1.43942003
C             2.46670826   -1.24603339    2.61127274
C             2.10931276   -0.58718934    3.76961486
C             2.92185451   -0.60395325    4.89419834
C             4.11993223   -1.28238761    4.89370113
C             4.46583111   -1.93889348    3.72476749
C             3.66263878   -1.92588360    2.60408176
H             2.11600394   -1.29645334    0.49279692
H             1.00837785   -0.22897532    1.36830034
H             1.16309598   -0.04166834    3.79471232
H             2.62019025   -0.07911576    5.79244225
H             4.78263229   -1.31858147    5.75389819
H             5.40557005   -2.47903200    3.70422118
H             3.95196906   -2.45266035    1.68274758
C             0.00000000    0.00000000    0.00000000
H             1.11123978    0.00000000   -0.00000000
H            -0.34606400    0.76353014   -0.74018318
H            -0.40221157    0.23645094    1.00959804



