%chk=sp_64_1.chk
%mem=300GB
%nprocshared=68
#p opt=(calcfc,ts,noeigen,maxstep=5) freq b3lyp def2svp em=gd3bj  

Freeze index  [11, 18]  [18, 19]  [3, 19]  [3, 33]  [3, 28]  [3, 21] // Local index  3  18  20  33  (20,)  [11, 18]  [18, 19]

0 1
Fe            2.18729305    5.22599774    0.95886963
C            -3.17592808    2.06796091   -1.74822874
Pd           -1.22186494    3.88915528   -0.77664026
C             0.12683308    6.41791520   -1.22340226
H             4.37930390    7.00001132    1.26553560
H             3.69816184    6.19935504   -1.23099927
H             3.08730290    3.55509420   -1.11876119
C            -0.04959626    1.41883395   -0.02916233
O            -4.13721546    1.58945977   -2.31280497
C             0.49290528    5.99663352    0.16266478
O             0.99690035    2.11961553    0.17268168
C             0.49731515    4.60959832    2.00399319
C             0.89027174    5.91031401    2.43011637
C             0.85685185    6.77920162    1.29600543
H             0.46283851    3.71968405    2.63035238
H             1.18820239    6.19174065    3.43903797
H             1.09897074    7.84118123    1.29172626
H             0.63485096    3.39120932    0.15424341
C             0.24458242    4.62812565    0.58671157
C            -2.42715206    1.25481919   -0.66322115
O            -2.73549965    3.28877413   -1.96515406
C             3.43855871    4.17224121   -0.29430122
C             3.74904788    5.56461823   -0.34773261
C             4.10906906    5.98778802    0.96989866
C             4.02483988    4.85410932    1.83461956
C             3.60604126    3.73343040    1.05546719
H             3.40508492    2.72975322    1.42157349
N            -1.21734327    1.97007678   -0.27859052
H            -2.16260781    0.28226481   -1.10643574
H             0.80412384    5.96768900   -1.96303058
H             0.15271701    7.51441960   -1.35650761
H             4.21073600    4.85328634    2.88834760
N            -1.21789636    5.89725656   -1.50888185
C            -1.65693425    6.15761373   -2.85235350
C            -2.17870008    6.19290208   -0.50118868
H            -2.00183197    7.18481626   -3.02422574
H            -0.79596263    5.90345001   -3.52533809
H            -2.44181249    5.39870875   -3.10471669
H            -1.82704096    6.89469664    0.26894439
H            -3.12686278    6.55804920   -0.95890668
H            -2.44209180    5.22481726    0.00885939
C            -3.37024594    1.00203152    0.50171216
S            -2.97017071   -0.51016967    1.37677887
C            -3.26280375   -2.01097646    0.44523070
C            -2.87802197   -3.18481740    1.32229604
C            -3.26515585   -4.45094629    0.96851914
C            -2.89994445   -5.50389285    1.77382600
C            -2.15582099   -5.31646090    2.92463439
C            -1.78114437   -4.03401954    3.25601016
C            -2.14413653   -2.97741786    2.45461227
C            -2.49743579   -2.11734610   -0.81354951
C            -1.25676143   -2.76844616   -0.80908658
C            -0.48198568   -2.91214759   -1.93828698
C            -0.93712482   -2.39525533   -3.14001775
C            -2.16330889   -1.74813782   -3.15796731
C            -2.93634645   -1.60746710   -2.01501283
C            -4.73430568   -2.18880140    0.25006562
C            -5.55631807   -1.67035626    1.22116593
C            -6.93363144   -1.80510717    1.10663510
C            -7.48137176   -2.46635482    0.00750450
C            -6.64926129   -2.97217743   -0.94228262
C            -5.26169419   -2.83972036   -0.83331086
H            -4.43452436    1.04236580    0.18005178
H            -3.24825619    1.84151758    1.21851716
H            -3.83844238   -4.64674988    0.09333249
H            -3.16798428   -6.54094810    1.56333403
H            -1.85715466   -6.12205113    3.56861322
H            -1.19031956   -3.89996802    4.17311535
H            -1.84933063   -1.97656841    2.71958565
H            -0.87634465   -3.18403787    0.12005301
H             0.48107174   -3.42579896   -1.89613260
H            -0.32385816   -2.51284697   -4.01859504
H            -2.53626244   -1.34136071   -4.07050106
H            -3.88825777   -1.09006275   -2.04232059
H            -5.19079100   -1.13870160    2.11144701
H            -7.56452817   -1.39823671    1.86892817
H            -8.55682278   -2.53601838   -0.01802020
H            -7.10153360   -3.48439559   -1.79421838
H            -4.66543759   -3.27038803   -1.62773176
O             0.00000000    0.00000000    0.00000000
C             2.40555702    0.00000000    0.00000000
C             1.12477966   -0.46816851    0.65858018
C             1.12396929   -0.10015373    2.12706899
C             1.09532837   -1.98008399    0.56315346
H             2.54491719   -0.64585443   -0.91020690
H             3.25050003   -0.11972680    0.70582624
H             2.26843548    1.05493857   -0.33596004
H             2.19866110    0.02809430    2.42593375
H             0.73905390   -0.93610477    2.74545167
H             0.63147211    0.86462987    2.32536047
H             1.99127256   -2.44892405    1.03318342
H             0.98932583   -2.23167224   -0.50826537
H             0.15669605   -2.30622527    1.05788693



