%chk=sp_63_1.chk
%mem=300GB
%nprocshared=68
#p opt=(calcfc,ts,noeigen,maxstep=5) freq b3lyp def2svp em=gd3bj  

Freeze index  [11, 18]  [18, 19]  [3, 19]  [3, 33]  [3, 28]  [3, 21] // Local index  3  18  20  33  (20,)  [11, 18]  [18, 19]

0 1
Fe            1.03393913   -5.20038429   -2.21397135
C            -1.47576406   -2.11142606    3.28380054
Pd           -0.56573311   -3.90759866    1.27763111
C             0.72253402   -6.45156639    0.74677902
H             2.54071741   -6.96962169   -3.84048297
H             3.55077123   -6.24157396   -1.43477367
H             3.05251617   -3.59374416   -1.09036160
C            -0.04959626   -1.41895768    0.02234538
O            -1.87865379   -1.64761197    4.32990121
C             0.16950445   -5.99032253   -0.56244837
O             0.63866678   -2.11588035   -0.79471733
C            -0.92905997   -4.54944754   -1.98772167
C            -0.90629295   -5.83790000   -2.59372453
C            -0.25420527   -6.73987190   -1.69735084
H            -1.32280181   -3.64131958   -2.44130444
H            -1.29576060   -6.09004763   -3.57893491
H            -0.08165995   -7.80206323   -1.86589530
H             0.33877880   -3.38662153   -0.58580046
C            -0.25936932   -4.60930171   -0.71461447
C            -1.53414801   -1.26828282    1.98580291
O            -1.01937733   -3.33913472    3.15782730
C             2.81162316   -4.18705332   -1.97009783
C             3.06169403   -5.58111440   -2.14906802
C             2.52900262   -5.96596429   -3.41910749
C             1.95461097   -4.80700995   -4.02489369
C             2.12444952   -3.70889863   -3.12839778
H             1.76123536   -2.69437437   -3.27191741
N            -0.82940616   -1.97464485    0.92392122
H            -1.03395257   -0.30986956    2.19446562
H             1.71997990   -6.02497628    0.92452604
H             0.80271984   -7.55158858    0.81188180
H             1.45486203   -4.77544831   -4.97048311
N            -0.15344383   -5.93648106    1.80896110
C             0.31906306   -6.23544616    3.13289728
C            -1.53608338   -6.19996656    1.59712199
H             0.13173698   -7.26648112    3.45772824
H             1.41670748   -6.00327658    3.14099897
H            -0.13052336   -5.48253026    3.83049704
H            -1.74501802   -6.87949629    0.75813978
H            -2.01102537   -6.57630958    2.53235412
H            -2.03760450   -5.21662133    1.37756442
C            -2.98832176   -0.97897416    1.65102633
C            -3.70893206   -2.28757414    1.53220372
C            -2.99714479   -0.17883295    0.37015967
C            -3.66675164   -0.16059557    2.71497573
H            -3.00668885   -3.16467649    1.57052494
H            -4.26410342   -2.39367297    0.56638931
H            -4.39594455   -2.45150027    2.41030589
H            -3.07567916    0.90950320    0.61153555
H            -3.84385558   -0.43863379   -0.26734183
H            -2.06833113   -0.31405655   -0.21900296
H            -2.88395686    0.31257784    3.32593217
H            -4.29842227    0.65936204    2.28472279
H            -4.30363156   -0.76152119    3.39097538
O             0.00000000    0.00000000    0.00000000
C             2.40555702    0.00000000    0.00000000
C             1.12477966    0.47132717   -0.65632332
C             1.12396929    0.11037181   -2.12656326
C             1.09532837    1.98276674   -0.55363389
H             2.54491719    0.64147400    0.91329932
H             3.25050003    0.12311647   -0.70524288
H             2.26843548   -1.05654047    0.33088784
H             2.19866110   -0.01643887   -2.42604073
H             0.73905390    0.94928415   -2.74092259
H             0.63147211   -0.85344798   -2.32948764
H             1.99127256    2.45385959   -1.02140594
H             0.98932583    2.22920459    0.51898130
H             0.15669605    2.31128114   -1.04679475



