%chk=sp_6_2.chk
%mem=300GB
%nprocshared=68
#p opt=(calcfc,ts,noeigen,maxstep=5) freq b3lyp def2svp em=gd3bj  

Freeze index  [11, 18]  [18, 19]  [3, 19]  [3, 32]  [3, 28]  [3, 21] // Local index  3  18  20  32  (20,)  [11, 18]  [18, 19]

-1 1
Fe            0.63206209   -5.46009354    1.67411072
C            -3.92914920   -0.44549825    1.33513437
Pd           -2.47448665   -2.85830609    1.71132725
C            -2.07312733   -5.17194765    3.41402107
H             2.19507119   -7.59671833    2.69291448
H             1.32326460   -5.69305518    4.41155137
H             1.58096267   -3.28359232    3.18437982
C            -0.48429175   -1.23024244    0.51803962
O            -4.78864389    0.40971001    1.37586352
C            -1.33652980   -5.46205755    2.14677251
O             0.31713419   -2.14480282    0.90314950
C            -0.55530314   -5.02024194    0.02336368
C            -0.50317799   -6.42839254    0.22886584
C            -1.01742574   -6.70724734    1.53272799
H            -0.19569184   -4.49361767   -0.85914463
H            -0.11686457   -7.16506989   -0.47397376
H            -1.11607098   -7.69160571    1.98852915
H            -0.41169094   -3.18685901    1.26556557
C            -1.06946248   -4.38408217    1.20819799
C            -2.77408003   -0.33871563    0.30874282
O            -3.93214886   -1.51962385    2.09517078
C             1.87917536   -4.24904041    2.78068972
C             1.73416656   -5.51794563    3.41853227
C             2.19459477   -6.52329853    2.51181406
C             2.62797522   -5.87268033    1.31642607
C             2.42893156   -4.46838484    1.47986439
H             2.61782509   -3.69738843    0.73712209
N            -1.78955650   -1.37646371    0.58618427
H            -2.31619769    0.65494287    0.43243718
H            -1.72134154   -5.57368442    4.34122940
H             3.01098910   -6.36512077    0.42427915
O            -3.23990021   -4.36301789    3.38773467
C            -3.35249505   -0.42073928   -1.09450421
C            -4.12040126   -1.70260840   -1.20836174
C            -2.19200759   -0.33726625   -2.05742828
C            -4.28753958    0.71865342   -1.39363188
H            -3.97979516   -2.36370564   -0.30996854
H            -3.80644738   -2.32271462   -2.08538622
H            -5.23014605   -1.50796300   -1.23096567
H            -2.07888103    0.71587540   -2.41379859
H            -2.34309944   -0.96917587   -2.93417022
H            -1.23089300   -0.62533396   -1.58690607
H            -4.09153338    1.51594276   -0.66161908
H            -4.12037117    1.15122855   -2.41411755
H            -5.35559694    0.44240845   -1.31205328
O             0.00000000    0.00000000    0.00000000
C             1.40115125   -0.00000000    0.00000000
C             1.85332832    1.31612626   -0.55416767
C             3.31426035    1.46040705   -0.61488928
C             4.30909480    0.61578524   -1.15684100
C             5.60714318    1.03310070   -1.05730180
C             5.97753546    2.23605509   -0.45343747
C             4.98214893    3.03303122    0.06327060
C             3.64263867    2.64387003   -0.01742776
C             2.41225100    3.28852408    0.44050324
C             2.21220386    4.50792302    1.10673099
C             0.95250019    4.93378161    1.45126579
C            -0.12415553    4.13884014    1.13042790
C             0.06816140    2.94620576    0.47913993
C             1.34991167    2.48855376    0.11564874
H             1.78345365   -0.78866130   -0.70610020
H             1.75798689   -0.22104195    1.00289513
H             1.49986303    1.31442970   -1.63262815
H             3.98803865   -0.30150361   -1.61367855
H             6.40434382    0.40312899   -1.46671359
H             7.00361622    2.52786696   -0.39495117
H             5.20622864    3.96869283    0.53897726
H             3.08702547    5.10838655    1.34329725
H             0.74964876    5.86231567    1.96333029
H            -1.13302424    4.43461802    1.38232035
H            -0.76357885    2.28164669    0.20449834



