%chk=sp_9_1.chk
%mem=300GB
%nprocshared=68
#p opt=(calcfc,ts,noeigen,maxstep=5) freq b3lyp def2svp em=gd3bj  

Freeze index  [11, 18]  [18, 19]  [3, 19]  [3, 33]  [3, 28]  [3, 21] // Local index  3  18  20  33  (20,)  [11, 18]  [18, 19]

0 1
Fe           -1.73253103    5.41725168   -0.81633638
C            -0.58970180   -0.40504881   -4.11188157
Pd           -1.23010949    2.23431974   -3.27358283
C            -1.18443274    5.04783853   -3.97729351
H            -1.70004984    8.17702891   -0.16159745
H             0.38916270    7.14746753   -1.54468663
H             0.97227694    4.71625233   -0.48306002
C            -0.49636088    1.06455741   -0.79796203
O            -0.34924934   -1.38032209   -4.79215489
C            -2.04423052    4.94307681   -2.75973632
O            -0.47577253    2.26876488   -0.37785638
C            -3.09587397    3.85879745   -1.01826028
C            -3.74731956    5.10931986   -1.21748710
C            -3.11754082    5.76890749   -2.31776273
H            -3.32126084    3.14420891   -0.22829786
H            -4.56731858    5.50723817   -0.62154733
H            -3.38724483    6.74293368   -2.72393001
H            -1.05960384    3.02105050   -1.29523013
C            -2.02068428    3.72476274   -1.96635906
C            -0.89950632   -0.56679590   -2.60292115
O            -0.65452319    0.81943684   -4.58922524
C             0.21072210    5.40892110   -0.13060380
C            -0.10574003    6.68196886   -0.69379389
C            -1.20838657    7.22614630    0.03619720
C            -1.56826818    6.28964025    1.05282039
C            -0.69535255    5.16479948    0.94731019
H            -0.73210812    4.25883881    1.54703477
N            -0.96899292    0.75073999   -1.98448723
H            -0.07506795   -1.14609766   -2.15907501
H            -0.12358690    5.13665917   -3.70309731
H            -1.44862756    5.91229216   -4.61262095
H            -2.37306910    6.39802723    1.74957321
N            -1.32290364    3.79406285   -4.73209517
C            -0.47250522    3.72782167   -5.88877916
C            -2.67210062    3.40347113   -4.96248084
H            -0.83450779    4.30357300   -6.74964663
H             0.54005298    4.08415557   -5.56240215
H            -0.32112461    2.64534436   -6.13570705
H            -3.41783923    4.16223895   -4.68417777
H            -2.81303843    3.08718585   -6.02170439
H            -2.86802761    2.48410566   -4.34353578
C            -2.17973214   -1.37105004   -2.44608435
C            -2.31937279   -1.70816094   -0.97486850
C            -3.37086947   -0.58813083   -2.95031350
C            -4.65893869   -1.32748879   -2.80338784
H            -2.22298646   -0.75068968   -0.42600780
H            -3.26803048   -2.23424635   -0.76096356
H            -1.47375596   -2.40406764   -0.73046924
H            -2.07329534   -2.27028117   -3.06872727
H            -3.20329662   -0.40787415   -4.02992467
H            -3.43643975    0.41873576   -2.47849288
H            -5.45784812   -0.70562061   -3.25841418
H            -4.61860769   -2.25972958   -3.41186548
H            -4.91964843   -1.57462290   -1.76008812
O             0.00000000    0.00000000    0.00000000
C             1.41083033    0.00000000    0.00000000
C             1.94061031    1.27158702    0.54354581
C             2.20995799    2.37842640   -0.25670618
C             2.70552417    3.55965513    0.27098021
C             2.94592662    3.66441277    1.62206172
C             2.68645864    2.57981865    2.43591884
C             2.19263547    1.40728456    1.89946260
H             1.79393422   -0.15843041   -1.02794320
H             1.72408576   -0.83884511    0.65833881
H             2.01310165    2.27324924   -1.31772115
H             2.90331403    4.40363407   -0.38948118
H             3.33765042    4.60954388    2.01247372
H             2.87529943    2.65785699    3.50724389
H             1.98003595    0.53332816    2.53185276



