%chk=2-modfreq.chk
#p freq external='./xtb.sh'

Generate automatically by rxnb

0 1
C            0.442770       -1.692840        0.237800
C            2.147170       -1.617490       -1.679060
C            1.690240       -2.056550       -0.342260
C            0.748190       -1.480750        1.608850
C            2.035810       -1.961260        1.894500
C            2.630570       -2.324620        0.679850
H            0.083570       -1.091370        2.349890
H            2.511140       -1.925620        2.846150
H            3.649600       -2.604940        0.547050
H            3.236100       -1.600490       -1.626600
N            1.661120       -0.246450       -1.945550
H            1.837190       -2.272940       -2.497120
C            2.663630        0.988640        1.807080
C            3.706540        0.068160        1.613760
C            3.964110       -0.024980        0.235240
C            3.081700        0.837220       -0.424100
C            2.271750        1.482090        0.549200
H            2.226160        1.199590        2.754500
H            4.168580       -0.524580        2.365980
H            4.658930       -0.692440       -0.218980
H            1.593000        2.289160        0.359670
Fe           2.130620       -0.478390        0.651120
C            2.735800        0.742820       -1.853410
H            3.600700        0.446990       -2.461470
H            2.348210        1.696850       -2.215590
C            0.906680       -0.156260       -3.195050
H            0.523950        0.861150       -3.312470
H            1.524240       -0.406390       -4.069380
H            0.055920       -0.845690       -3.149740
Pd           0.099650        0.282980       -0.585780
O           -0.367660        2.187750       -1.040520
N           -1.501310        0.486560        0.564220
C           -1.028240        2.755580       -0.104460
C           -1.519510        1.825470        1.061580
C           -2.444280       -0.313630        0.181400
O           -1.266790        3.948390       -0.055810
O           -2.133310       -1.413790       -0.388080
H           -0.826490       -1.659300       -0.175130
H           -2.511950        2.154330        1.390020
O           -3.704490        0.017900        0.490880
C           -4.862610       -0.973360       -1.410840
C           -4.815560       -0.815910        0.109370
C           -4.726670       -2.176080        0.803140
C           -6.039800       -0.043340        0.603400
H           -4.872100        0.006530       -1.884030
H           -5.760260       -1.514100       -1.697870
H           -3.991580       -1.524050       -1.756510
H           -5.616710       -2.758540        0.581760
H           -4.651090       -2.039720        1.879940
H           -3.851380       -2.718120        0.455530
H           -6.947590       -0.586120        0.356780
H           -6.071840        0.937730        0.137000
H           -5.984930        0.090360        1.680600
C           -0.500920        1.840020        2.214560
H           -0.972740        1.498200        3.133750
H            0.308870        1.141660        1.944810
H           -0.112320        2.842660        2.372370


