%chk=4-tsfreq.chk
#p freq external='./xtb.sh'

Generate automatically by rxnb

0 1
C           -0.413550       -1.535860        0.316560
C           -2.341610       -1.161750        1.890730
C           -1.696590       -1.918880        0.802540
C           -0.489630       -1.789080       -1.083880
C           -1.691590       -2.443590       -1.396010
C           -2.453290       -2.524750       -0.222860
H            0.251080       -1.556510       -1.819020
H           -2.022450       -2.692590       -2.376970
H           -3.469540       -2.837640       -0.162040
H           -3.408260       -1.168580        1.672230
N           -1.836950        0.230220        1.838120
H           -2.175870       -1.569840        2.891700
C           -2.461870        0.364100       -2.193710
C           -3.514650       -0.500690       -1.855540
C           -3.909720       -0.221220       -0.538000
C           -3.102310        0.822570       -0.063300
C           -2.207200        1.203920       -1.092320
H           -1.923740        0.311290       -3.110770
H           -3.867350       -1.315130       -2.441510
H           -4.636280       -0.772770        0.012250
H           -1.557230        2.052760       -1.061100
Fe          -2.044430       -0.702720       -0.635250
C           -2.877090        1.147330        1.353900
H           -3.791180        1.043690        1.952060
H           -2.493450        2.165780        1.446950
C           -1.308280        0.670430        3.130220
H           -0.895090        1.677390        3.023370
H           -2.087590        0.688060        3.904840
H           -0.508430       -0.007950        3.446430
Pd          -0.165790        0.398150        0.682830
O            0.109230        2.504330        0.655910
N            1.515920        0.509020       -0.267910
C            0.780590        2.825010       -0.371540
C            1.493170        1.642700       -1.140440
C            2.503300       -0.229620        0.064800
O            0.903210        3.950420       -0.820950
O            2.271000       -1.291030        0.813220
H            1.170090       -1.425620        0.805810
H            2.495470        1.973310       -1.435460
O            3.724750        0.037890       -0.382740
C            5.081980       -0.757160        1.485490
C            4.873500       -0.763640       -0.028290
C            4.717320       -2.186950       -0.564330
C            6.032670       -0.054080       -0.729380
H            5.124260        0.267430        1.848950
H            6.016670       -1.255160        1.727320
H            4.268160       -1.275620        1.985210
H            5.638640       -2.738820       -0.401510
H            4.506600       -2.160880       -1.631330
H            3.905240       -2.700890       -0.057560
H            6.965010       -0.572020       -0.526050
H            6.108900        0.970350       -0.375280
H            5.862110       -0.034270       -1.802420
C            0.664820        1.211690       -2.361980
H            1.291790        0.654120       -3.056710
H           -0.152190        0.561320       -2.009810
H            0.267950        2.083850       -2.874460


